<?xml version="1.0" encoding="UTF-8"?>

<!-- generated on 11/10/16 17:21:08 by SUMO duarouter Version 0.28.0
<?xml version="1.0" encoding="UTF-8"?>

<configuration xmlns:xsi="http://www.w3.org/2001/XMLSchema-instance" xsi:noNamespaceSchemaLocation="http://sumo.dlr.de/xsd/duarouterConfiguration.xsd">

    <input>
        <net-file value="net.net.xml"/>
        <trip-files value="trips.trips.xml"/>
    </input>

    <output>
        <output-file value="map.rou.xml"/>
    </output>

    <processing>
        <ignore-errors value="true"/>
    </processing>

    <time>
        <begin value="0"/>
        <end value="100.0"/>
    </time>

    <report>
        <no-warnings value="true"/>
        <no-step-log value="true"/>
    </report>

</configuration>
-->

<routes xmlns:xsi="http://www.w3.org/2001/XMLSchema-instance" xsi:noNamespaceSchemaLocation="http://sumo.dlr.de/xsd/routes_file.xsd">
    <vehicle id="0" depart="0.00">
        <route edges="-152651602 -37857250#1 -37857250#0 152618130#2 152618130#3 -349599164#1 -349599164#0 37857251#0 37857251#1 -210673562#2 -210673562#1 -210673562#0 210673566#0 210673566#1 210673566#2 211339127#0 211339127#1 210673565#0 210673565#1 210673565#2 210673565#3 211339125#0 211339125#1 211339125#2 211339125#3 29035149 29035150#0 29035150#1 29035150#2 29035150#3 29035150#4 212708425#0 212708425#1 212708425#2 212708425#3 434879920 206867054#0 206867054#1 206867054#2 206867054#3 206867054#4 206867054#5 206867054#6 206867054#7 206867054#8 434879919#0 434879919#1 434879919#2 434879919#3 434879919#4 351525662 166972993 166972992#0 166972992#1 166972992#2 166972992#3 166972992#4 166972992#5 27103806#0 27103806#1 27103806#2 27103806#3 27103806#4 -240887999#5 -240887999#4 -206871911"/>
    </vehicle>
    <vehicle id="1" depart="1.00">
        <route edges="166972992#2 166972992#3 166972992#4 166972992#5 256605509#0 256605509#1 256605510#0 256605510#1 13798688#0 13798688#1 13798768 13797988#0 13797988#1 4257028#1 13798242#0 30912874#0 30912874#1 -30912881#1 -30912881#0 35541722 30911283#0 30911283#1 30911283#2 34628257#0 34628257#1 -34628257#1"/>
    </vehicle>
    <vehicle id="3" depart="3.00">
        <route edges="-37112931#0 166972992#1 166972992#2 166972992#3 166972992#4 166972992#5 256605509#0 256605509#1 256605510#0 256605510#1 13798688#0 13798688#1 13798688#2 13798697 448867800 13797704#0 13797704#1 30912875 34771961#0 34771961#1 -212710696#0"/>
    </vehicle>
    <vehicle id="4" depart="4.00">
        <route edges="440389518 440117023 440389517#4 440389517#5 440389517#6 440389517#7 448568802 141476900 -26248564#3 -26248564#2 -26248564#1 -26248564#0 34774629#0 34774629#1 34774629#2 35078680 -35078500#5 -35078500#4 -35078500#3 -35078500#2 -106334856#1 -106334856#0"/>
    </vehicle>
    <vehicle id="5" depart="5.00">
        <route edges="-443218708 152618120#1 152618120#2 -210673562#7 -210673562#6 -210673562#5 -210673562#4 -210673562#3 -210673562#2 -210673562#1 -210673562#0 210673566#0 210673566#1 210673566#2 211339127#0 211339127#1 210673565#0 210673565#1 210673565#2 210673565#3 211339125#0 211339125#1 211339125#2 211339125#3 29035149 29035150#0 29035150#1 29035150#2 29035150#3 29035150#4 212708425#0 212708425#1 212708425#2 212708425#3 434879920 206867054#0 349643894 36996353#0 36996353#1 36996353#2 37120131#1 37111744"/>
    </vehicle>
    <vehicle id="6" depart="6.00">
        <route edges="166973017#2 166973017#3 434878392#0 434878392#1 434878392#2 434878392#3 434878392#4 209633323 351525676 220234010#0 220234010#1 220234010#2 29035151 29035153 220234009#0 220234009#1 220234009#2 211339122#0 211339122#1 308678930 351525652#0 351525652#1 351525652#2 211339126#0 211339126#1 211339126#2 434897741#2 434897741#3 434897741#4 434897741#5 434897741#6 434897741#0 161123874#0 161123874#1 37857253 161124287#0 161124287#1 152618138 349599165#0 349599165#1 349599165#2"/>
    </vehicle>
    <vehicle id="8" depart="8.00">
        <route edges="35997763#0 -35997763#0 220234010#2 29035151 29035153 220234009#0 345573793#0 345573793#1 37221656 -125000475 37221655#1 125000464 449415306#0 449415306#1 449415306#2 345574066 351525683#1 210674290#3 210674290#4 210674290#5 210674290#6 37120545#0 37120545#1 448858679#0 -211339124#3 -211339124#2 -211339124#1 -211339124#0 37915263#0"/>
    </vehicle>
    <vehicle id="9" depart="9.00">
        <route edges="37141970#3 -37141970#3 -37916215 211339122#1 308678930 351525652#0 351525652#1 351525652#2 24812056 210673566#0 210673566#1 311272094#0 311272094#1 -443789659 -37914797#0 -311272090#2 -311272090#1 -311272091"/>
    </vehicle>
    <vehicle id="10" depart="10.00">
        <route edges="-443685792#0 342382077#1 210674289#4 210674289#5 210674289#0 210674289#1 210674289#2 37221650#0 37221650#1 210674290#6 210674290#7 210674290#0 125000467#0 125000467#1 448858678 448858676 345573795 211339125#2 211339125#3 29035149 29035150#0 29035150#1 29035150#2 29035150#3 29035150#4 212708425#0 212708425#1 212708425#2 212708425#3 434879920 206867054#0 206867054#1 206867054#2 38001349 26248559#0 26248559#1 26248559#2 26248559#3 26248559#4 26248559#5 26248559#6 26248559#7 26248559#8 26248559#9 26248559#10 440389519 440389518 440117023 440389517#4 440389517#5 440389517#6 440389517#7 448568802 141476900 -26248564#3 -26248564#2 -26248564#1 -26248564#0 34774629#0 34774629#1 34774629#2 219537531 241364282 34798406 241364281 13798089 34777927#0 34777927#1 104915571 189312419#0 13798242#2 241364286#2 189312418"/>
    </vehicle>
    <vehicle id="11" depart="11.00">
        <route edges="-63844510#1 36997788#0 36997788#1 63844520 200207562#1 63844506#1 63844506#2 166972993 166973017#0 166973017#1 166973017#2 166973017#3 434878392#0 434878392#1 434878392#2 434878392#3 434878392#4 209633323 351525676 220234010#0 220234010#1 220234010#2 29035151 29035153 220234009#0 220234009#1 220234009#2 211339122#0 211339122#1 308678930 351525652#0 351525652#1 351525652#2 24812056 210673566#0 210673566#1 210673566#2 211339127#0"/>
    </vehicle>
    <vehicle id="12" depart="12.00">
        <route edges="37142655#1 37141970#6 37141970#7 37141970#8 -37141971#1 -37141971#0 -27289587#8 -27289587#7 27289994#0 27289994#1 27289994#2 253026354#0 27290392#0 27290392#1 27290127#3 27290902 27290137#2"/>
    </vehicle>
    <vehicle id="13" depart="13.00">
        <route edges="-37202414 -36996750 36996749#2 37336454#0 37336454#1 -37120544#1 -37120544#0 -37120543 -37120542#1 -37120542#0 -37120545#1 -37120545#0 210674290#7 210674290#0 210674290#1 210674290#2 210674290#3 210674290#4 342382077#0 342382077#1 210674289#4 210674292#0 37914791 449412447#0 449412447#1 -37221658#12 -37221658#11 -37221658#10 -37221658#9 -37221658#8 -37221658#7 -37221658#6 -37221658#5 -37221658#4 -37221658#3 -37221658#2 -37221658#1 -37221658#0 37857256#0 37857256#1 37857256#2 -349599164#0 152618138 349599165#0 37857254#0 37857254#1 450913091#0 450913090"/>
    </vehicle>
    <vehicle id="14" depart="14.00">
        <route edges="106334852 434878394#0 434878394#1 -434878398#1 -434878398#0 -29036514 -228657552 30911255#0 30911255#1 30911255#2 120692683#2 13860800 13860802 35006697#2 29036509#0 29036509#1 13798158#0 13798158#1 13798575 34777947 34777927#1 104915571 189312419#0 189312419#1 241364284 241364285 104915569"/>
    </vehicle>
    <vehicle id="15" depart="15.00">
        <route edges="37855529#1 -37855529#1 -27149266#0 -256605510#0 -256605509#1 -256605509#0 -166972992#5 -166972992#4 -166972992#3 -166972992#2 -166972992#1 -166972992#0 166973017#0 166973017#1 166973017#2 166973017#3 434878392#0 434878392#1 434878392#2 434878392#3 434878392#4 209633323 351525676 35997762 212708425#0 212708425#1 212708425#2 212708425#3 434879920 206867054#0 349643894 36996353#0 36996353#1 36996353#2 -37120131#0"/>
    </vehicle>
    <vehicle id="16" depart="16.00">
        <route edges="206873751#4 206873751#5 206873751#6 206873751#7 -27103806#1 -27103806#0 -166972992#5 -166972992#4 -166972992#3 -166972992#2 -166972992#1 -166972992#0 166973017#0 166973017#1 166973017#2 166973017#3 434878392#0 434878392#1 434878392#2 434878392#3 434878392#4 209633323 351525676 220234010#0 220234010#1 220234010#2 29035151 29035153 220234009#0 345573793#0 345573793#1 37221656 125000470#0 125000470#1 125000470#2 125000470#3 125000467#0 -126568161 -351525686#0"/>
    </vehicle>
    <vehicle id="18" depart="18.00">
        <route edges="-30912894#1 30912895#1 448568808#3 228569586 13797704#0 13797704#1 30912875 34771961#0 34771961#1 212710696#1 -35541709#3 -35541709#2 30912880#0 30912880#1 30912881#0 35473999"/>
    </vehicle>
    <vehicle id="19" depart="19.00">
        <route edges="253026357#1 -253026357#1 -253026357#0 -253026351 253026354#0 253026354#1 253026354#2 120692683#0 120692683#1 120692683#2 13860800 13860802 35006697#2 29036509#0 29036509#1 29036509#2 29036509#3 13797865#0 13797865#1 13798716#2 -256605510#1 -256605510#0 -256605509#1 -256605509#0 27103806#0 27103806#1 27103806#2 27103806#3 27103806#4 -240887999#5 -240887999#4 -206871911"/>
    </vehicle>
    <vehicle id="20" depart="20.00">
        <route edges="37915268 448858678 448858676 345573795 211339125#2 211339125#3 29035149 29035150#0 29035150#1 29035150#2 29035150#3 29035150#4 212708425#0 212708425#1 212708425#2 212708425#3 434879920 206867054#0 206867054#1 206867054#2 206867054#3 206867054#4 206867054#5 206867054#6 206867054#7 206867054#8 434879919#0 434879919#1 434879919#2 434879919#3 434879919#4 351525662 -63844506#2 -63844506#1 -200207562#1 -63844520 63844520"/>
    </vehicle>
    <vehicle id="21" depart="21.00">
        <route edges="-35997529#4 -35997529#3 -35997529#2 -35997529#1 -35997529#0 434878392#0 434878392#1 434878392#2 434878392#3 434878392#4 209633323 351525676 220234010#0 220234010#1 220234010#2 29035151 29035153 220234009#0 220234009#1 220234009#2 211339122#0 211339122#1 308678930 351525652#0 351525652#1 351525652#2 211339126#0 211339126#1 211339126#2 434897741#2 434897741#3 -161124269#6 -161124269#5 -161124269#4 -161124269#3 -161124269#2 -161124269#1 37856971 441677227#1 441677227#2"/>
    </vehicle>
    <vehicle id="22" depart="22.00">
        <route edges="253026354#0 -253026354#0 -161123865#1 -161123865#0 161123864 -351255844 351255846#0 351255846#1 351255846#2 351255846#3 -13799456#1 -13799456#0 13268420 434897741#4 434897741#5 434897741#6 434897741#0 161123874#0 161123874#1 161123874#2 161123874#3 210673566#0 210673566#1 210673566#2 211339127#0 211339127#1 210673565#0 210673565#1 210673565#2 210673565#3 211339125#0 211339125#1 211339125#2 211339125#3 29035149 29035150#0 29035150#1 29035150#2 29035150#3 29035150#4 212708425#0 212708425#1 212708425#2 212708425#3 434879920 206867054#0 206867054#1 206867054#2 206867054#3 206867054#4 206867054#5 206867054#6 206867054#7 206867054#8 434879919#0 434879919#1 434879919#2 434879919#3 434879919#4 351525662 166972993 166972992#0 37112931#0 -37112931#0"/>
    </vehicle>
    <vehicle id="23" depart="23.00">
        <route edges="241364286#1 241364286#2 189312418 13798291#0 13798291#1 -241364282 -219537531 35078680 -35078500#5 -35078500#4 -35078500#3 -35078500#2 -35078500#1 -35078500#0 35145521#0 35145521#1 35145521#2 35145521#3 35145521#4 35145521#5 37141967#0 37141967#1 37141967#2 37141967#3 63192525#3 63192525#4 450475039#0 450475039#1 106334851#1 106334851#2 106334851#3 106334851#4 106334865#0 -106334865#0"/>
    </vehicle>
    <vehicle id="24" depart="24.00">
        <route edges="-443218709#1 443218709#1 -443218708 152618120#1 152618120#2 -210673562#7 -210673562#6 -210673562#5 37221658#0 37221658#1 37221658#2 37221658#3 37221658#4 152189731#0 152189731#1 -311277096#1 -311277096#0 -37857973#2 -37857973#1 -37857973#0 37857972#1 37857972#2 37857972#3 37857972#4 37857972#5 160378807#0 160378807#1 37393299"/>
    </vehicle>
    <vehicle id="25" depart="25.00">
        <route edges="37141970#0 37916216 -27289587#14 -27289587#13 -27289587#12 -27289587#11 -27289587#10 -27289587#9 -27289587#8 -27289587#7 27289994#0 27289994#1 27289994#2 253026351 253026357#0 253026357#1 -27290327#2 -27290327#1 27290578#0 27290578#1 -27290455#1 -27290455#0 27290455#0"/>
    </vehicle>
    <vehicle id="26" depart="26.00">
        <route edges="-35997529#10 -35997529#9 -35997529#8 -35997529#7 -35997529#6 -35997529#5 -35997529#4 -35997529#3 -35997529#2 -35997529#1 -35997529#0 434878392#0 434878392#1"/>
    </vehicle>
    <vehicle id="27" depart="27.00">
        <route edges="-37120545#1 -37120545#0 210674290#7 210674290#0 210674290#1 210674290#2 210674290#3 210674290#4 342382077#0 342382077#1 210674289#4 210674292#0 210674292#1 210674298#0 210674298#1 210674298#2 210674298#3 -37857972#5 -37857972#4 -37857972#3 -37857972#2 -37857972#1 37857973#0 37857973#1 37857973#2 311277096#0 311277096#1 152189731#2 -152189730#2 -152189730#1 -152189730#0 -210673562#10 210673562#10"/>
    </vehicle>
    <vehicle id="28" depart="28.00">
        <route edges="-448858679#1 -448858679#0 -37120545#1 -37120545#0 210674290#7 210674290#0 210674290#1 351525683#0 -345574066 210674294#0 37221657 345574067 345574068#0 345574068#1 345574068#2 210673565#2 210673565#3 37937528 211339122#0 211339122#1 308678930 351525652#0 351525652#1 351525652#2 211339126#0 211339126#1 211339126#2 434897741#2 13799462#0 13799462#1 13799462#2 13799462#3 13799456#0 13799456#1 351255845#0 351255845#1 351255844 161123863 161123865#0 161123865#1 253026351 253026357#0 27290127#0 27290127#1 -27290454#1 -27290454#0 27290486#1 34640002 118672061 -118672059#2 -118672059#1 -118672059#0"/>
    </vehicle>
    <vehicle id="29" depart="29.00">
        <route edges="-35145152#3 -35145152#2 -35145152#1 -35145152#0 -35078500#3 -35078500#2 -35078500#1 -35078500#0 35145521#0 35145521#1 35145521#2 35145521#3 35145521#4 35145521#5 316459169#0 316459169#1 316459169#2 316459169#3 316459169#4 286085489 35997762 36905352 108480588#0 108480588#1 36996748 36996749#0 36996749#1 36996749#2 37336454#0 37336454#1 -37120544#1 -37120544#0 -37120543 -37120542#1 -37120542#0 448858679#0 -211339124#3 -211339124#2 -211339124#1 -211339124#0 37915263#0 -37393309#1 -37393310 -126570323#2 311277117 37221652#2"/>
    </vehicle>
    <vehicle id="31" depart="31.00">
        <route edges="-446887316#0 106334851#2 106334851#3 106334851#4 106334865#0 106334865#1 -37141971#1 -37141971#0 -27289587#8 -27289587#7 27289994#0 27289994#1 27289994#2 253026351 253026357#0 27290127#0 27290127#1 -27290454#1 -27290454#0 27290486#1 38080447 351255906#0 351255906#1 -36357160#0 -36355828#3 -36355828#2 -36355828#1 -36355828#0"/>
    </vehicle>
    <vehicle id="32" depart="32.00">
        <route edges="29036509#2 29036509#3 13797865#0 13797865#1 13798716#2 -256605510#1 -256605510#0 37338734#0 37338734#1 37143412 256605511#0 256605511#1 280570948 440389517#6 440389517#7 448568802 141476900 -26248564#3 -26248564#2 -26248564#1 -26248564#0 34774629#0 34774629#1 34774629#2 35078680 -35078500#5 -35078500#4 -35078500#3 -35078500#2 -35078500#1 -35078500#0 35145521#0 -35145521#0"/>
    </vehicle>
    <vehicle id="33" depart="33.00">
        <route edges="172933202 37856966#1 161124269#4 161124269#5 161124269#6 434897741#4 434897741#5 434897741#6 434897741#0 161123874#0 161123874#1 161123874#2 161123874#3 210673566#0 210673566#1 210673566#2 211339127#0 211339127#1 210673565#0 210673565#1 210673565#2 210673565#3 211339125#0 211339125#1 211339125#2 211339125#3 29035149 29035150#0 29035150#1 29035150#2 29035150#3 29035150#4 212708425#0 212708425#1 212708425#2 212708425#3 434879920 206867054#0 206867054#1 206867054#2 206867054#3 206867054#4 206867054#5 206867054#6 206867054#7 206867054#8 434879919#0 434879919#1 434879919#2 434879919#3 434879919#4 351525662 166972993 166973017#0 37855526#0 37855527#0 254724123"/>
    </vehicle>
    <vehicle id="34" depart="34.00">
        <route edges="35145521#4 35145521#5 316459169#0 316459169#1 316459169#2 316459169#3 316459169#4 286085489 220234010#0 220234010#1 220234010#2 29035151 29035153 220234009#0 220234009#1 220234009#2 211339122#0 211339122#1 308678930 351525652#0 351525652#1 351525652#2 -27289587#17 -27289587#16 -27289587#15 -27289587#14 -27289587#13 27289587#13"/>
    </vehicle>
    <vehicle id="35" depart="35.00">
        <route edges="37014841#0 36966144 36966145 36965448 36996352#0 36996352#1 -26248558#0 26248552 37120133#0 37120133#1 37120133#2 308678923#1 434878392#4 26248559#0 26248559#1 26248559#2 26248559#3 26248559#4 26248559#5 26248559#6 26248559#7 26248559#8 26248559#9 26248559#10 440389519 440389518 440117023 440389517#4 440389517#5 440389517#6 440389517#7 448568802 141476900 -26248564#3 -26248564#2 -26248564#1 -26248564#0 34774629#0 34774629#1 34774629#2 219537531 241364282 34798406 241364281 13798089 448858673 13798541#0 13798541#1 13798545#0 13798545#1 30912874#0 30912874#1 -30912881#1 -30912881#0 30912881#0"/>
    </vehicle>
    <vehicle id="36" depart="36.00">
        <route edges="307166758 349600374#0 349600374#1 426458371#0 426458371#1 161124264#2 161124264#3 351525654#1 434897741#6 434897741#0 161123874#0 161123874#1 161123874#2 161123874#3 210673566#0 210673566#1 210673566#2 211339127#0 211339127#1 210673565#0 210673565#1 210673565#2 210673565#3 211339125#0 211339125#1 211339125#2 211339125#3 29035149 29035150#0 29035150#1 29035150#2 29035150#3 29035150#4 212708425#0 212708425#1 212708425#2 212708425#3 434879920 206867054#0 206867054#1 206867054#2 206867054#3 206867054#4 206867054#5 206867054#6 206867054#7 206867054#8 38001351 35997529#0 35997529#1 35997529#2 35997529#3 35997529#4 195652243#0 195652243#1 -195652232#6 -195652232#5 -195652232#4 -195652232#3 -195652232#2 -195652232#1 311394891 -195652234#3 -195652233"/>
    </vehicle>
    <vehicle id="37" depart="37.00">
        <route edges="-450404339 -37856479#1 -37856479#0 34628257#4 34628257#5 34628257#6 34628257#7 434878397#0 434878397#1 206843929 206843931#0 206843931#1 206843931#2 35078502 35078501#0 35078501#1 35078501#2 35078501#3 35078501#4 35078501#5 35078501#6 35145521#0 35145521#1 35145521#2 35145521#3 35145521#4 37141968#0 -37141968#0"/>
    </vehicle>
    <vehicle id="38" depart="38.00">
        <route edges="13797988#1 4257028#1 13798242#0 13798242#1 13798242#2 241364286#2 189312418 13798272"/>
    </vehicle>
    <vehicle id="39" depart="39.00">
        <route edges="311272093 210674294#2 211339127#0 211339127#1 210673565#0 210673565#1 210673565#2 37221655#0 37221655#1 125000464 449415306#0 449415306#1 449415306#2 210674294#0"/>
    </vehicle>
    <vehicle id="40" depart="40.00">
        <route edges="-254726047 26248567#1 26248565#0 26248565#1 35727408 35727410 35078680 -35078500#5 -35078500#4 -35078500#3 -35078500#2 -35078500#1 -35078500#0 -35078501#6 -35078501#5 -35078501#4 -35078501#3 -35078501#2 -35078501#1 -35078501#0 -35078502 -206843931#2 -206843931#1 -206843931#0 35078498 434878397#0 434878397#1 212708375#0 212708375#1 -450902731 106334852 434878394#0 434878394#1 -434878398#1 -434878398#0 -29036514 -228657552 -62087619#3 -62087619#2 -62087619#1 34597087 106334854#2 -37141975 -37141973#1"/>
    </vehicle>
    <vehicle id="41" depart="41.00">
        <route edges="37221652#0 37221652#1 37221652#2 37221652#3 211339124#0 211339124#1 211339124#2 211339124#3 448858679#1"/>
    </vehicle>
    <vehicle id="42" depart="42.00">
        <route edges="240884741#0 240884741#1 -166972992#5 -166972992#4 -166972992#3 -166972992#2 -166972992#1 -166972992#0 166973017#0 166973017#1 166973017#2 166973017#3 434878392#0 434878392#1 434878392#2 434878392#3 434878392#4 209633323 351525676 220234010#0 220234010#1 220234010#2 29035151 29035153 220234009#0 220234009#1 220234009#2 211339122#0 211339122#1 308678930 351525652#0 351525652#1 351525652#2 24812056 210673566#0 210673566#1 311272094#0 311272094#1 -443789659 -37914797#0 -311272090#2 311272092"/>
    </vehicle>
    <vehicle id="43" depart="43.00">
        <route edges="29036509#2 29036509#3 13797865#0 13797865#1 13798716#2 -256605510#1 -256605510#0 -256605509#1 -256605509#0 -166972992#5 -166972992#4 -166972992#3 -166972992#2 -166972992#1 -166972992#0 166973017#0 166973017#1 166973017#2 166973017#3 434878392#0 434878392#1 434878392#2 434878392#3 434878392#4 209633323 351525676 35997762 36905352 108480588#0 108480588#1 36996748 36996749#0 36996749#1 36996749#2 37336454#0 37336454#1 -37120544#1 -37120544#0 -37120543 -37120542#1 -37120542#0 448858679#0 -211339124#3 -211339124#2 -211339124#1 -211339124#0 37915263#0 37915263#1 37393312#0"/>
    </vehicle>
    <vehicle id="45" depart="45.00">
        <route edges="35104764 448568808#3 228569586 -448867800 -13798697 13798716#0 13798716#1 13798716#2 -256605510#1 -256605510#0 37338734#0 37338734#1 37143412 -35997529#10 35997529#10"/>
    </vehicle>
    <vehicle id="46" depart="46.00">
        <route edges="-173013103 -106334851#2 -106334851#1 -106334851#0 63192525#0 63192525#1 63192525#2 -37141967#3 -37141967#2 -37141967#1 -37141967#0 316459169#0 -349643887 36979228#0 36979228#1 36979228#2 36979228#3 36979228#4 36979228#5 36979228#6 36979228#7 26248559#7 26248559#8 26248559#9 26248559#10 440389519 440389518 440117023 440389517#4 440389515 -256605511#1 -256605511#0 -35997529#10 -35997529#9 195652234#0 195652234#1 195652234#2 195652234#3 195652234#4 311394895#0 311394895#1 311394895#2 311394895#3 311394895#4 311394895#5 37855525#2 -37855526#1 37855527#0 37855527#1"/>
    </vehicle>
    <vehicle id="47" depart="47.00">
        <route edges="448568807#0 30912895#0 30912895#1 448568808#3 228569586 -448867800 -13798697 13798716#0 13797988#0 13797988#1 4257028#1 13798242#0 13798242#1 13798242#2 241364286#2 189312418 13798272 13798046#1 29036509#3 13797865#0"/>
    </vehicle>
    <vehicle id="48" depart="48.00">
        <route edges="449447636 -212708375#0 206843929 206843931#0 206843931#1 206843931#2 35078502 35078501#0 35078501#1 35078501#2 35078501#3 35078501#4 35078501#5 35078501#6 35078500#0 35078500#1 35078500#2 35078500#3 35078500#4 35078500#5 35078499#0 406682433 34774629#2 219537531 13798046#0 13798046#1 29036509#3 13797865#0 13797865#1 13798716#2 -256605510#1 27149266#0 27149266#1 27149266#2 27149266#3 27149266#4 27149266#5 206873750#0"/>
    </vehicle>
    <vehicle id="49" depart="49.00">
        <route edges="27291749 27289994#2 -161123865#1 -161123865#0 161123864 -351255844 351255846#0 351255846#1 351255846#2 351255846#3 -13799456#1 -13799456#0 13268420 434897741#4 434897741#5 434897741#6 434897741#0 161123874#0 161123874#1 161123874#2 161123874#3 210673566#0 210673566#1 311272094#0 -37914798#3 -37914798#2 -37914798#1 -37914798#0 -37221658#13 -37221658#12 311277103#0 311277103#1 210674298#1 210674298#2 -210674298#2"/>
    </vehicle>
    <vehicle id="50" depart="50.00">
        <route edges="118148373#2 -27290456#4 -27290456#3 27290217#0 27290217#1 27290137#1 27290137#2 -27290454#0 27290486#1"/>
    </vehicle>
    <vehicle id="51" depart="51.00">
        <route edges="141434581 161124283#1 36355828#2 36355828#3 36357160#0 -351255906#1 -351255906#0 -161124211#1 -161124211#0 27290456#0 27290456#1 27290456#2 27290217#0 27290217#1 27290217#2 27290217#3 27290217#4 120693470 120692683#1 120692683#2 13860800 13860802 35006697#2 29036509#0 29036509#1 13798158#0 13798192 13798291#1 -241364282 -219537531 35078680 -35078500#5 -35078500#4 35145152#0 35145152#1 35145152#2 35145152#3 198248589#0 -198248589#0"/>
    </vehicle>
    <vehicle id="52" depart="52.00">
        <route edges="-27149266#3 -27149266#2 -27149266#1 -27149266#0 -256605510#0 -256605509#1 -256605509#0 -166972992#5 -166972992#4 -166972992#3 -166972992#2 -166972992#1 -166972992#0 166973017#0 166973017#1 166973017#2 166973017#3 434878392#0 434878392#1 434878392#2 434878392#3 434878392#4 26248559#0 26248559#1 26248559#2 26248559#3 26248559#4 26248559#5 26248559#6 26248559#7 26248559#8 26248559#9 26248559#10 440389519"/>
    </vehicle>
    <vehicle id="53" depart="53.00">
        <route edges="448867798#2 -448867798#2 -448867798#1 -448867798#0 -13797704#1 -13797704#0 -448867800 -13798697 13798716#0 13798716#1 13798716#2 -256605510#1 -256605510#0 -256605509#1 -256605509#0 -166972992#5 -166972992#4 -166972992#3 -166972992#2 -166972992#1 -166972992#0 166973017#0 166973017#1 166973017#2 166973017#3 434878392#0 434878392#1 434878392#2 434878392#3 434878392#4 209633323 351525676 220234010#0 220234010#1 220234010#2 29035151 29035153 220234009#0 220234009#1 220234009#2 211339122#0 211339122#1 308678930 351525652#0 351525652#1 351525652#2 24812056 210673562#0 210673562#1 210673562#2 210673562#3 210673562#4 210673562#5 210673562#6 210673562#7 210673562#8 210673562#9 210673562#10 152189730#0 152189730#1 -152189730#1"/>
    </vehicle>
    <vehicle id="54" depart="54.00">
        <route edges="30912874#1 -30912881#1 -30912881#0 35541722 30911283#0 30911283#1 30911283#2 34628257#0 34628257#1 34628257#2 34628257#3 34628257#4 34628257#5 34628257#6 34628257#7 434878397#0 434878397#1 206843929 206843931#0 206843931#1 206843931#2 35078502 35078501#0 35078501#1 35078501#2 35078501#3 35078501#4 35078501#5 35078501#6 35145521#0 35145521#1 35145521#2 35145521#3 35145521#4 35145521#5 316459169#0 316459169#1 316459169#2 316459169#3 316459169#4 286085489 35997762 212708425#0 212708425#1 212708425#2 37120135 37120131#0"/>
    </vehicle>
    <vehicle id="55" depart="55.00">
        <route edges="-210673562#13 -210673562#12 -210673562#11 -210673562#10 -210673562#9 -210673562#8 -210673562#7 -210673562#6 -210673562#5 -210673562#4 -210673562#3 -210673562#2 -210673562#1 -210673562#0 210673566#0 210673566#1 210673566#2 211339127#0 211339127#1 210673565#0 210673565#1 210673565#2 210673565#3 211339125#0 211339125#1 211339125#2 211339125#3 29035149 29035150#0 29035150#1 29035150#2 29035150#3 29035150#4 212708425#0 212708425#1 212708425#2 212708425#3 434879920 206867054#0 206867054#1 206867054#2 206867054#3 206867054#4 206867054#5 206867054#6 206867054#7 206867054#8 434879919#0 434879919#1 434879919#2 434879919#3 434879919#4 351525662 166972993 166972992#0 166972992#1 166972992#2 166972992#3 166972992#4 166972992#5 256605509#0 256605509#1 256605510#0 256605510#1 13798688#0 13798688#1 13798688#2 13798697 448867800 -228569586 -448568808#3 -30912895#1 30912894#1 -263330573#2 -263330573#1 -263330573#0"/>
    </vehicle>
    <vehicle id="56" depart="56.00">
        <route edges="-35145521#4 35145521#4 35145521#5 316459169#0 316459169#1 316459169#2 316459169#3 316459169#4 286085489 35997762 212708425#0 212708425#1 212708425#2 212708425#3 434879920 206867054#0 206867054#1 206867054#2 206867054#3 206867054#4 206867054#5 206867054#6 206867054#7 206867054#8 434879919#0 434879919#1 434879919#2 434879919#3 434879919#4 351525662 -63844506#2 -63844506#1 -63844506#0 -252338683 -13797528#1 13797528#1"/>
    </vehicle>
    <vehicle id="57" depart="57.00">
        <route edges="30912874#1 -30912881#1 -30912881#0 35541722 30911283#0 30911283#1 30911283#2 34628257#0 34628257#1 34628257#2 34628257#3 34628257#4 34628257#5 34628257#6 34628257#7 434878397#0 434878397#1 212708375#0 212708375#1 -450902731 106334852 434878394#0 434878394#1 -434878398#1 -434878398#0 -29036514 -228657552 -62087619#3 -62087619#2 -62087619#1 -62087619#0 27289587#0 27289587#1 27289587#2 27289587#3 27289587#4 27289587#5 27289587#6 27289587#7 27289587#8 27289587#9 27289587#10 172889538#0 172889538#1 -172889538#1"/>
    </vehicle>
    <vehicle id="58" depart="58.00">
        <route edges="-37914796#0 -37221658#5 152189731#0 152189731#1 -311277096#1 -311277096#0 -37857973#2 -37857973#1 -37857973#0 37857972#1 37857972#2 37857972#3 37857972#4 37857972#5 160378807#0 160378807#1 37393299"/>
    </vehicle>
    <vehicle id="59" depart="59.00">
        <route edges="-263330573#0 263330573#0 263330573#1 263330573#2 -30912894#1 30912895#1 448568808#3 228569586 13797704#0 13797704#1 30912875 34771961#0 34771961#1 212710696#1 -35541709#3 -35541709#2 30912880#0 30912880#1 35541722 30911283#0 30911283#1 30911283#2 34628257#0 34628257#1 34628257#2 34628257#3 34628257#4 34628257#5 34628257#6 34628257#7 434878397#0 434878397#1 212708375#0 212708375#1 -450902731 106334852 434878394#0 434878394#1 -434878398#1 -434878398#0 -29036514 -228657552 -62087619#3 -62087619#2 -62087619#1 -62087619#0 27289587#0 27289587#1 62087622 -62087613 -27103792#5 -27103792#4 27103792#4"/>
    </vehicle>
    <vehicle id="60" depart="60.00">
        <route edges="-62087615#0 106334854#4 -106334857#4 27103792#0 27103792#1 27103792#2"/>
    </vehicle>
    <vehicle id="61" depart="61.00">
        <route edges="13797528#1 252338683 63844506#0 63844506#1 63844506#2 166972993 166973017#0 166973017#1 166973017#2 166973017#3 434878392#0 434878392#1 434878392#2 434878392#3 434878392#4 209633323 351525676 220234010#0 220234010#1 220234010#2 29035151 29035153 220234009#0 220234009#1 37142655#0 37142655#1 37141970#6 37141970#7 37141970#8 -37141971#1 -37141971#0 -27289587#8 -27289587#7 -27289587#6 -27289587#5 -27289587#4 -27289587#3 -27289587#2 -27289587#1 -27289587#0 62087619#0 62087619#1 62087619#2 62087619#3 228657552"/>
    </vehicle>
    <vehicle id="62" depart="62.00">
        <route edges="-400580529 -37221653 211339124#3 -448858679#0 37120542#0 37120542#1 37120543 37120544#0 37120544#1 -37336454#1 -37336454#0 -36996749#2 -36996749#1 -36996749#0 -36996748 36996747#0 -37194468 36996747#2 -37120135 212708425#3 434879920 206867054#0 206867054#1 206867054#2 38001349 26248559#0 26248559#1 26248559#2 26248559#3 26248559#4 26248559#5 26248559#6 26248559#7 26248559#8 26248559#9 26248559#10 440389519 440389518 440117023 440389517#4 440389517#5 440389517#6 440389517#7 448568802 141476900 -26248564#3 -26248564#2 -26248564#1 -26248564#0 34774629#0 34774629#1 34774629#2 35078680 -35078500#5 -35078500#4 -35078500#3 -35078500#2 -35078500#1 -35078500#0 -35078501#6 -35078501#5 -35078501#4 -35078501#3 -35078501#2 -35078501#1 35997812#2 35997812#3 35997812#4 35997812#5 -35997812#5"/>
    </vehicle>
    <vehicle id="63" depart="63.00">