<?xml version="1.0" encoding="UTF-8"?>

<!-- generated on 11/10/16 16:54:17 by SUMO polyconvert Version 0.28.0
<?xml version="1.0" encoding="UTF-8"?>

<configuration xmlns:xsi="http://www.w3.org/2001/XMLSchema-instance" xsi:noNamespaceSchemaLocation="http://sumo.dlr.de/xsd/polyconvertConfiguration.xsd">

    <input>
        <net-file value="net.net.xml"/>
        <osm-files value="map.osm"/>
        <type-file value="typemap.xml"/>
    </input>

    <output>
        <output-file value="map.poly.xml"/>
    </output>

    <processing>
        <poi-layer-offset value="5"/>
    </processing>

</configuration>
-->

<additional xmlns:xsi="http://www.w3.org/2001/XMLSchema-instance" xsi:noNamespaceSchemaLocation="http://sumo.dlr.de/xsd/additional_file.xsd">
    <location netOffset="-529032.07,-4557194.27" convBoundary="0.00,0.00,8241.49,5459.33" origBoundary="-8.653862,41.165412,-8.555436,41.214632" projParameter="+proj=utm +zone=29 +ellps=WGS84 +datum=WGS84 +units=m +no_defs"/>

    <poly id="106113096" type="water" color="181,209,209" fill="0" layer="-4.00" shape="4903.25,2575.59 4904.11,2580.94 4905.57,2590.20 4908.49,2610.10 4913.86,2639.89 4916.26,2655.53 4920.60,2678.03 4922.78,2692.82 4924.20,2701.38 4924.85,2714.69 4927.71,2730.97 4930.84,2748.30 4930.57,2758.70 4929.16,2772.37 4926.07,2785.64 4921.97,2797.21 4916.53,2812.41 4908.29,2835.80 4903.99,2845.77 4898.27,2856.26 4894.82,2859.21 4887.80,2864.50 4882.61,2866.94 4874.96,2868.25 4864.84,2865.66 4862.55,2866.48 4859.83,2872.89 4849.70,2879.16 4838.41,2887.69 4831.05,2897.48 4825.75,2905.67 4819.14,2916.06 4814.12,2927.61 4812.78,2938.55 4814.20,2951.10 4815.26,2957.86 4818.49,2969.02 4820.68,2979.79 4820.18,2990.09 4819.05,3000.40 4820.11,3005.33 4829.39,3023.25 4836.56,3049.33 4829.30,3062.74 4829.65,3083.80 4824.19,3096.78 4822.35,3105.73 4824.99,3117.39 4822.25,3125.90 4822.16,3145.61 4817.16,3157.24 4813.08,3164.83 4813.04,3172.90 4806.69,3184.07 4806.19,3196.62 4810.15,3214.56 4814.59,3227.13 4813.19,3243.71 4807.77,3250.11 4803.23,3257.71 4802.26,3267.40 4800.52,3281.53 4799.12,3288.99 4795.98,3304.42 4801.90,3315.15 4803.91,3322.98 4809.43,3345.58 4813.65,3353.75 4812.91,3366.31 4811.14,3381.76 4814.16,3392.81 4809.35,3407.68 4808.14,3417.09 4805.06,3422.80 4802.11,3424.10 4800.70,3427.73 4791.25,3442.12 4785.77,3448.88 4773.47,3454.94 4759.28,3463.03 4749.36,3471.30 4737.21,3481.94 4718.88,3489.75 4716.38,3492.98 4716.22,3506.36 4717.38,3518.47 4715.01,3525.91 4721.95,3544.63 4721.83,3555.37 4718.29,3572.79 4723.90,3631.23 4723.05,3638.74 4727.12,3654.45 4733.28,3674.17 4735.84,3695.00 4733.02,3715.71 4729.89,3725.39 4724.33,3743.85 4720.22,3751.14 4723.89,3759.74 4721.88,3780.88 4726.80,3786.18 4738.74,3794.65 4742.27,3799.22 4751.31,3809.55 4757.85,3816.20 4767.01,3826.60 4773.61,3834.44 4773.61,3834.86 4787.00,3850.55 4798.46,3867.94 4802.80,3877.48 4810.82,3892.64 4816.18,3901.63 4825.24,3911.42 4832.07,3919.63 4833.70,3928.73 4828.79,3955.65 4824.04,3980.75 4820.78,3988.37 4808.75,4004.00 4802.24,4021.00"/>
    <poly id="106334853" type="amenity" color="237,199,199" fill="1" layer="-1.00" shape="4190.76,1016.47 4181.35,1016.80 4177.46,1017.01 4173.61,1017.20 4122.97,1019.84 4121.39,1050.83 4100.02,1050.13 4092.63,1190.85 4183.05,1195.29 4190.76,1016.47"/>
    <poly id="106334855" type="amenity" color="237,199,199" fill="1" layer="-1.00" shape="4916.40,277.60 4886.39,364.30 4876.46,371.43 4888.42,410.48 4904.19,407.87 4920.38,409.73 4949.24,397.76 4953.65,416.17 4963.34,433.42 4977.42,449.23 4978.68,447.67 4980.50,445.44 4984.65,446.21 4988.39,445.80 4992.48,444.16 4995.49,441.33 4996.91,437.82 4997.22,432.65 5000.37,427.89 4978.63,411.79 4998.55,385.66 5012.76,368.43 5016.77,363.64 5018.07,359.82 5029.42,326.65 4995.75,306.67 4916.40,277.60"/>
    <poly id="114600151" type="amenity" color="237,199,199" fill="1" layer="-1.00" shape="3310.03,1949.44 3312.16,1926.93 3377.94,1931.59 3378.90,1943.70 3342.91,1941.41 3319.75,1940.41 3318.36,1950.71 3310.03,1949.44"/>
    <poly id="116614144" type="amenity" color="237,199,199" fill="1" layer="-1.00" shape="4808.68,853.82 4850.30,866.20 4905.43,882.17 4923.54,892.78 4932.37,922.02 4914.29,929.89 4909.97,927.38 4885.33,918.15 4870.47,945.98 4787.99,900.26 4808.68,853.82"/>
    <poly id="116614495" type="amenity" color="237,199,199" fill="1" layer="-1.00" shape="4071.59,1352.37 4089.19,1335.11 4144.19,1281.19 4169.95,1255.76 4179.04,1237.42 4179.82,1220.79 4180.06,1215.64 4163.67,1199.27 4099.12,1198.51 4075.26,1201.09 4064.45,1203.28 4063.26,1264.04 4074.41,1263.86 4071.59,1352.37"/>
    <poly id="126532326" type="parking" color="184,184,179" fill="1" layer="-1.00" shape="4826.63,2417.49 4891.71,2409.06 4890.63,2400.85 4825.55,2409.29 4826.63,2417.49"/>
    <poly id="126563929" type="tourism" color="207,245,201" fill="1" layer="-2.00" shape="4942.80,2395.12 4931.61,2452.42 4924.13,2512.40 4922.83,2550.61 4924.62,2571.73 4930.07,2628.78 4946.08,2683.02 4966.49,2728.78 4956.74,2740.72 4933.95,2785.92 4926.65,2800.38 4925.92,2802.58 4917.14,2828.79 4914.18,2834.05 4879.65,2824.64 4870.67,2814.93 4866.19,2801.35 4867.42,2794.11 4868.13,2789.92 4868.70,2775.52 4868.81,2773.03 4860.22,2760.79 4861.90,2741.01 4875.92,2740.77 4875.95,2733.84 4890.56,2732.56 4889.98,2701.82 4885.46,2701.59 4884.97,2673.12 4879.67,2666.68 4878.94,2658.26 4857.71,2648.73 4865.11,2625.85 4854.94,2621.70 4855.32,2571.40 4874.19,2584.15 4894.83,2569.90 4913.17,2473.27 4911.35,2462.93 4895.26,2445.32 4942.80,2395.12"/>
    <poly id="126570879" type="leisure" color="207,245,201" fill="1" layer="-2.00" shape="4570.24,2463.80 4562.03,2291.65 4650.67,2289.73 4651.87,2355.09 4652.26,2376.15 4653.91,2465.97 4570.24,2463.80"/>
    <poly id="126573236" type="tourism" color="207,245,201" fill="1" layer="-2.00" shape="4572.40,2097.11 4602.08,2075.92 4603.23,2079.23 4609.81,2076.66 4612.30,2084.34 4607.40,2084.77 4619.47,2120.33 4622.14,2120.93 4639.04,2163.77 4659.78,2174.15 4724.43,2183.44 4762.20,2189.44 4765.88,2193.11 4766.56,2208.15 4717.32,2193.77 4701.68,2189.78 4663.93,2186.46 4645.01,2186.58 4615.31,2152.32 4608.48,2131.39 4572.40,2097.11"/>
    <poly id="126573237" type="tourism" color="207,245,201" fill="1" layer="-2.00" shape="4682.65,2088.65 4736.64,2088.46 4737.79,2131.49 4731.04,2131.46 4682.65,2088.65"/>
    <poly id="126573508" type="residential" color="235,235,227" fill="1" layer="-3.00" shape="4784.74,2367.14 4784.50,2326.67 4782.42,2325.43 4782.23,2314.52 4823.62,2314.80 4879.77,2316.09 4898.98,2335.39 4926.83,2355.34 4928.05,2368.24 4928.24,2370.45 4917.45,2371.26 4917.82,2376.59 4896.09,2387.02 4869.30,2391.16 4827.21,2397.01 4818.02,2396.48 4813.64,2395.45 4810.36,2392.45 4804.78,2385.25 4798.50,2379.63 4793.78,2377.14 4793.16,2366.38 4784.74,2367.14"/>
    <poly id="126574075" type="building" color="255,230,230" fill="1" layer="-1.00" shape="4803.93,2592.08 4800.66,2593.30 4796.19,2592.83 4791.48,2590.69 4785.84,2587.29 4782.83,2581.79 4782.18,2576.18 4783.32,2571.70 4785.70,2568.02 4788.43,2568.82 4804.02,2553.09 4804.03,2543.68 4808.03,2537.99 4811.37,2539.00 4829.88,2554.33 4833.13,2550.65 4845.93,2560.91 4840.92,2568.73 4838.14,2569.17 4839.25,2571.30 4803.90,2571.69 4803.91,2570.12 4797.81,2575.92 4804.90,2583.01 4800.00,2587.81 4803.93,2592.08"/>
    <poly id="126574076" type="building" color="255,230,230" fill="1" layer="-1.00" shape="4705.45,2499.87 4704.86,2481.72 4737.37,2479.06 4753.68,2479.48 4755.64,2500.45 4705.45,2499.87"/>
    <poly id="126574077" type="building" color="255,230,230" fill="1" layer="-1.00" shape="4748.68,2353.62 4767.13,2353.26 4766.85,2340.04 4748.52,2339.73 4748.68,2353.62"/>
    <poly id="126574121" type="building" color="255,230,230" fill="1" layer="-1.00" shape="4749.25,2380.11 4748.98,2354.15 4766.98,2353.69 4767.04,2372.09 4749.25,2380.11"/>
    <poly id="126574122" type="building" color="255,230,230" fill="1" layer="-1.00" shape="4744.29,2282.34 4743.61,2259.36 4758.90,2260.78 4759.24,2282.29 4744.29,2282.34"/>
    <poly id="126574123" type="building" color="255,230,230" fill="1" layer="-1.00" shape="4802.55,2306.14 4802.04,2295.83 4870.54,2294.25 4870.40,2306.91 4802.55,2306.14"/>
    <poly id="126574124" type="building" color="255,230,230" fill="1" layer="-1.00" shape="4785.12,2305.61 4796.59,2305.77 4796.19,2271.26 4782.47,2270.76 4785.12,2305.61"/>
    <poly id="126574125" type="building" color="255,230,230" fill="1" layer="-1.00" shape="4747.91,2326.05 4747.52,2311.94 4766.76,2311.35 4766.83,2325.93 4747.91,2326.05"/>
    <poly id="126574126" type="building" color="255,230,230" fill="1" layer="-1.00" shape="4766.69,2326.37 4747.79,2326.95 4748.52,2339.40 4767.10,2339.59 4766.69,2326.37"/>
    <poly id="126574340" type="building" color="255,230,230" fill="1" layer="-1.00" shape="4758.67,2285.66 4758.68,2283.19 4770.15,2282.46 4770.59,2286.39 4758.67,2285.66"/>
    <poly id="126574341" type="building" color="255,230,230" fill="1" layer="-1.00" shape="4759.96,2392.89 4760.03,2377.88 4770.84,2377.93 4771.02,2394.18 4759.96,2392.89"/>
    <poly id="126574342" type="building" color="255,230,230" fill="1" layer="-1.00" shape="4881.34,2463.82 4890.40,2473.16 4894.81,2468.81 4893.15,2468.02 4894.40,2466.01 4886.54,2457.79 4881.57,2462.14 4882.70,2462.59 4881.34,2463.82"/>
    <poly id="126574343" type="building" color="255,230,230" fill="1" layer="-1.00" shape="4885.20,2479.19 4890.65,2474.17 4880.91,2464.60 4874.90,2470.06 4885.20,2479.19"/>
    <poly id="126574344" type="building" color="255,230,230" fill="1" layer="-1.00" shape="4780.75,1913.98 4798.96,1914.96 4799.95,1896.93 4801.67,1895.81 4796.11,1882.34 4782.11,1887.10 4780.75,1913.98"/>
    <poly id="126574345" type="building" color="255,230,230" fill="1" layer="-1.00" shape="4801.79,2444.63 4820.70,2442.03 4829.05,2491.71 4809.44,2493.07 4801.79,2444.63"/>
    <poly id="126574346" type="building" color="255,230,230" fill="1" layer="-1.00" shape="4777.23,1920.12 4776.94,1916.43 4789.18,1916.48 4789.49,1920.86 4777.23,1920.12"/>
    <poly id="126574347" type="parking" color="184,184,179" fill="1" layer="-1.00" shape="4762.51,2280.86 4761.92,2262.48 4772.04,2262.53 4772.18,2281.36 4762.51,2280.86"/>
    <poly id="126574348" type="building" color="255,230,230" fill="1" layer="-1.00" shape="4747.01,1937.91 4747.06,1926.93 4765.39,1926.79 4765.14,1938.12 4747.01,1937.91"/>
    <poly id="126574349" type="building" color="255,230,230" fill="1" layer="-1.00" shape="4846.16,2469.17 4833.93,2457.89 4868.93,2420.96 4883.05,2432.91 4846.16,2469.17"/>
    <poly id="126574350" type="building" color="255,230,230" fill="1" layer="-1.00" shape="4771.12,2292.55 4770.92,2286.94 4757.99,2286.66 4758.75,2293.62 4771.12,2292.55"/>
    <poly id="126639449" type="building" color="255,230,230" fill="1" layer="-1.00" shape="4908.41,2375.45 4905.52,2344.30 4886.14,2346.28 4879.75,2328.58 4861.30,2328.04 4861.31,2324.68 4786.83,2331.06 4786.81,2335.77 4787.18,2353.70 4885.71,2345.84 4892.79,2383.12 4908.41,2375.45"/>
    <poly id="126639992" type="building" color="255,230,230" fill="1" layer="-1.00" shape="4843.59,2548.58 4872.49,2576.72 4877.36,2576.36 4890.58,2562.35 4873.53,2545.35 4891.43,2525.83 4888.93,2522.57 4893.03,2518.89 4890.31,2516.97 4892.34,2515.41 4887.22,2511.47 4878.41,2511.08 4843.59,2548.58"/>
    <poly id="126639993" type="parking" color="184,184,179" fill="1" layer="-1.00" shape="4768.28,2370.85 4767.86,2316.85 4773.48,2317.65 4774.17,2368.98 4768.28,2370.85"/>
    <poly id="126639995" type="building" color="255,230,230" fill="1" layer="-1.00" shape="4863.45,2503.94 4851.58,2493.01 4858.47,2486.29 4870.65,2497.77 4863.45,2503.94"/>
    <poly id="126639996" type="building" color="255,230,230" fill="1" layer="-1.00" shape="4870.85,2492.68 4861.22,2484.57 4866.42,2479.21 4876.31,2487.44 4870.85,2492.68"/>
    <poly id="126639997" type="building" color="255,230,230" fill="1" layer="-1.00" shape="4876.73,2486.65 4866.65,2478.55 4872.29,2474.09 4881.28,2482.31 4876.73,2486.65"/>
    <poly id="126640371" type="building" color="255,230,230" fill="1" layer="-1.00" shape="4701.56,2422.87 4722.94,2422.31 4723.05,2396.76 4700.56,2398.00 4701.56,2422.87"/>
    <poly id="126640372" type="building" color="255,230,230" fill="1" layer="-1.00" shape="4785.60,2443.43 4784.51,2436.04 4755.03,2439.71 4755.91,2450.80 4785.60,2443.43"/>
    <poly id="126640373" type="building" color="255,230,230" fill="1" layer="-1.00" shape="4700.34,2395.98 4699.98,2376.48 4722.03,2374.12 4722.65,2395.97 4700.34,2395.98"/>
    <poly id="126640374" type="building" color="255,230,230" fill="1" layer="-1.00" shape="4703.18,2462.32 4702.46,2424.90 4725.19,2423.20 4724.69,2439.46 4728.03,2440.03 4727.82,2442.83 4725.09,2443.15 4725.44,2464.45 4703.18,2462.32"/>
    <poly id="126640375" type="building" color="255,230,230" fill="1" layer="-1.00" shape="4699.77,2374.46 4699.43,2356.20 4719.88,2354.62 4721.14,2373.66 4699.77,2374.46"/>
    <poly id="126641074" type="amenity" color="237,199,199" fill="1" layer="-1.00" shape="4698.96,2354.06 4696.46,2312.38 4718.50,2311.36 4721.23,2353.95 4698.96,2354.06"/>
    <poly id="126641074#1" type="building" color="255,230,230" fill="1" layer="-1.00" shape="4698.96,2354.06 4696.46,2312.38 4718.50,2311.36 4721.23,2353.95 4698.96,2354.06"/>
    <poly id="126641386" type="building" color="255,230,230" fill="1" layer="-1.00" shape="4539.83,2524.10 4539.58,2483.42 4562.53,2483.30 4562.53,2524.64 4539.83,2524.10"/>
    <poly id="126641387" type="building" color="255,230,230" fill="1" layer="-1.00" shape="4578.96,2524.28 4578.69,2483.49 4601.87,2482.25 4602.57,2524.15 4578.96,2524.28"/>
    <poly id="126641389" type="building" color="255,230,230" fill="1" layer="-1.00" shape="4653.97,2402.49 4652.26,2376.15 4678.65,2375.15 4679.20,2402.49 4653.97,2402.49"/>
    <poly id="126641390" type="building" color="255,230,230" fill="1" layer="-1.00" shape="4678.40,2373.24 4677.81,2355.54 4652.42,2355.98 4652.98,2374.92 4678.40,2373.24"/>
    <poly id="126641391" type="building" color="255,230,230" fill="1" layer="-1.00" shape="4679.91,2434.65 4678.94,2403.27 4654.19,2404.28 4654.71,2436.33 4679.91,2434.65"/>
    <poly id="126641393" type="building" color="255,230,230" fill="1" layer="-1.00" shape="4616.75,2523.55 4615.81,2482.31 4639.21,2481.52 4641.27,2524.33 4616.75,2523.55"/>
    <poly id="126641394" type="building" color="255,230,230" fill="1" layer="-1.00" shape="4677.14,2353.74 4675.56,2313.29 4651.46,2312.17 4651.87,2355.09 4677.14,2353.74"/>
    <poly id="126641396" type="building" color="255,230,230" fill="1" layer="-1.00" shape="4656.16,2463.89 4654.71,2437.22 4681.03,2435.78 4681.39,2463.68 4656.16,2463.89"/>
    <poly id="126641617" type="building" color="255,230,230" fill="1" layer="-1.00" shape="4691.89,2228.54 4691.07,2209.26 4667.50,2207.48 4669.83,2229.78 4691.89,2228.54"/>
    <poly id="126641618" type="building" color="255,230,230" fill="1" layer="-1.00" shape="4650.94,2233.72 4669.64,2233.93 4669.53,2257.68 4650.38,2258.38 4650.94,2233.72"/>
    <poly id="126641619" type="building" color="255,230,230" fill="1" layer="-1.00" shape="4651.40,2231.49 4648.40,2207.95 4665.68,2208.36 4668.02,2232.02 4651.40,2231.49"/>
    <poly id="126641620" type="building" color="255,230,230" fill="1" layer="-1.00" shape="4821.17,2146.68 4838.10,2135.32 4815.75,2101.60 4797.71,2112.50 4799.36,2114.90 4821.17,2146.68"/>
    <poly id="126641621" type="building" color="255,230,230" fill="1" layer="-1.00" shape="4651.60,2285.27 4649.47,2261.06 4670.59,2259.37 4670.47,2286.26 4651.60,2285.27"/>
    <poly id="126660168" type="building" color="255,230,230" fill="1" layer="-1.00" shape="5435.88,2309.32 5441.68,2272.60 5456.51,2274.69 5447.38,2311.59 5435.88,2309.32"/>
    <poly id="126660171" type="amenity" color="237,199,199" fill="1" layer="-1.00" shape="5443.35,2248.64 5441.78,2254.04 5435.04,2251.82 5433.46,2251.30 5428.31,2249.60 5425.03,2248.52 5422.49,2247.24 5421.61,2246.94 5420.52,2249.89 5418.75,2249.34 5413.60,2262.65 5404.65,2259.21 5407.48,2251.43 5412.01,2238.32 5435.54,2246.07 5443.35,2248.64"/>
    <poly id="126660171#1" type="building" color="255,230,230" fill="1" layer="-1.00" shape="5443.35,2248.64 5441.78,2254.04 5435.04,2251.82 5433.46,2251.30 5428.31,2249.60 5425.03,2248.52 5422.49,2247.24 5421.61,2246.94 5420.52,2249.89 5418.75,2249.34 5413.60,2262.65 5404.65,2259.21 5407.48,2251.43 5412.01,2238.32 5435.54,2246.07 5443.35,2248.64"/>
    <poly id="126782654" type="building" color="255,230,230" fill="1" layer="-1.00" shape="4790.59,2484.90 4791.14,2490.04 4780.09,2492.37 4778.99,2487.65 4790.59,2484.90"/>
    <poly id="126782655" type="building" color="255,230,230" fill="1" layer="-1.00" shape="4791.18,2503.40 4791.34,2494.65 4781.78,2493.94 4781.75,2502.54 4791.18,2503.40"/>
    <poly id="126782656" type="building" color="255,230,230" fill="1" layer="-1.00" shape="4778.99,2465.13 4778.00,2458.29 4787.13,2456.10 4788.55,2463.94 4778.99,2465.13"/>
    <poly id="126782657" type="building" color="255,230,230" fill="1" layer="-1.00" shape="4770.15,2429.46 4768.83,2423.63 4775.93,2422.19 4774.91,2420.75 4778.87,2420.41 4779.41,2422.33 4780.98,2421.90 4782.88,2427.37 4770.15,2429.46"/>
    <poly id="126782658" type="building" color="255,230,230" fill="1" layer="-1.00" shape="4745.67,2226.10 4761.75,2230.07 4761.14,2238.50 4744.74,2234.39 4745.67,2226.10"/>
    <poly id="126782660" type="building" color="255,230,230" fill="1" layer="-1.00" shape="4852.21,2512.31 4858.08,2507.85 4847.78,2498.39 4842.58,2503.75 4852.21,2512.31"/>
    <poly id="126782661" type="building" color="255,230,230" fill="1" layer="-1.00" shape="4837.06,2527.70 4843.28,2522.01 4832.75,2513.12 4827.15,2519.81 4837.06,2527.70"/>
    <poly id="126782662" type="building" color="255,230,230" fill="1" layer="-1.00" shape="4791.45,2493.76 4791.35,2490.73 4786.51,2491.39 4786.50,2493.96 4791.45,2493.76"/>
    <poly id="126782663" type="building" color="255,230,230" fill="1" layer="-1.00" shape="4836.95,2431.12 4835.84,2427.75 4843.17,2426.76 4844.14,2431.60 4836.95,2431.12"/>
    <poly id="126782664" type="building" color="255,230,230" fill="1" layer="-1.00" shape="4776.55,2529.43 4776.80,2525.18 4788.05,2525.89 4787.91,2529.81 4776.55,2529.43"/>
    <poly id="126782665" type="building" color="255,230,230" fill="1" layer="-1.00" shape="4858.53,2507.18 4847.89,2498.05 4852.74,2494.82 4863.45,2503.94 4858.53,2507.18"/>
    <poly id="126782666" type="building" color="255,230,230" fill="1" layer="-1.00" shape="4760.21,2245.22 4761.14,2238.50 4746.08,2235.96 4745.38,2241.11 4748.20,2241.21 4748.29,2244.93 4760.21,2245.22"/>
    <poly id="126782667" type="building" color="255,230,230" fill="1" layer="-1.00" shape="4743.73,2257.47 4744.44,2250.08 4762.20,2251.28 4760.82,2259.79 4743.73,2257.47"/>
    <poly id="126782668" type="building" color="255,230,230" fill="1" layer="-1.00" shape="4786.25,2449.59 4785.61,2443.99 4775.56,2446.18 4776.80,2451.45 4786.25,2449.59"/>
    <poly id="126782669" type="building" color="255,230,230" fill="1" layer="-1.00" shape="4776.65,2434.20 4775.77,2431.05 4771.26,2432.15 4770.60,2430.59 4781.86,2428.17 4783.63,2433.56 4776.65,2434.20"/>
    <poly id="126782670" type="building" color="255,230,230" fill="1" layer="-1.00" shape="4773.80,2539.16 4782.33,2547.25 4786.28,2542.34 4788.45,2536.19 4789.26,2530.05 4777.44,2530.00 4776.76,2534.57 4773.80,2539.16"/>
    <poly id="126782671" type="building" color="255,230,230" fill="1" layer="-1.00" shape="4781.85,2479.04 4780.53,2473.10 4789.19,2471.34 4790.41,2477.72 4781.85,2479.04"/>
    <poly id="126782672" type="building" color="255,230,230" fill="1" layer="-1.00" shape="4779.43,2466.03 4776.39,2465.56 4777.15,2471.28 4779.87,2471.05 4780.08,2472.63 4789.43,2470.87 4788.55,2464.62 4779.43,2466.03"/>
    <poly id="126782673" type="building" color="255,230,230" fill="1" layer="-1.00" shape="4780.57,2510.52 4791.14,2511.12 4790.87,2525.55 4780.28,2525.42 4780.57,2510.52"/>
    <poly id="126782674" type="building" color="255,230,230" fill="1" layer="-1.00" shape="4847.69,2516.09 4838.74,2507.43 4833.20,2512.88 4842.62,2521.43 4847.69,2516.09"/>
    <poly id="126782675" type="building" color="255,230,230" fill="1" layer="-1.00" shape="4699.95,2287.07 4700.45,2277.88 4704.39,2277.99 4704.96,2273.42 4715.77,2273.47 4714.79,2288.25 4699.95,2287.07"/>
    <poly id="126782676" type="building" color="255,230,230" fill="1" layer="-1.00" shape="4779.00,2486.53 4777.79,2480.92 4789.84,2478.29 4790.48,2484.45 4779.00,2486.53"/>
    <poly id="126782677" type="building" color="255,230,230" fill="1" layer="-1.00" shape="4777.90,2457.40 4776.91,2452.44 4786.25,2449.59 4787.35,2455.64 4777.90,2457.40"/>
    <poly id="126782678" type="building" color="255,230,230" fill="1" layer="-1.00" shape="4790.92,2510.45 4790.95,2503.95 4781.51,2502.90 4780.80,2509.95 4790.92,2510.45"/>
    <poly id="13797641" type="tourism" color="207,245,201" fill="1" layer="-2.00" shape="3454.97,808.38 3587.58,797.50 3572.66,616.68 3447.34,629.28 3459.95,761.95 3454.97,808.38"/>
    <poly id="139378164" type="building" color="255,230,230" fill="1" layer="-1.00" shape="4224.41,2173.07 4229.14,2188.09 4245.36,2183.02 4246.70,2185.49 4249.63,2184.16 4248.96,2181.91 4264.73,2177.50 4266.07,2179.75 4269.22,2178.86 4268.56,2176.17 4285.00,2171.54 4281.46,2156.96 4224.41,2173.07"/>
    <poly id="149942563" type="amenity" color="237,199,199" fill="1" layer="-1.00" shape="3199.76,1371.07 3275.82,1366.48 3286.62,1365.19 3287.90,1281.84 3298.76,1266.65 3297.89,1259.91 3192.66,1246.45 3185.33,1276.00 3189.39,1314.05 3199.76,1371.07"/>
    <poly id="150359339" type="building" color="255,230,230" fill="1" layer="-1.00" shape="2796.33,1483.62 2827.42,1466.23 2829.51,1469.93 2884.27,1439.32 2882.24,1435.71 2915.09,1417.35 2879.87,1354.83 2866.58,1362.26 2893.79,1410.56 2876.88,1420.02 2859.23,1388.68 2844.53,1396.90 2865.46,1434.04 2837.45,1449.70 2816.57,1412.64 2801.64,1420.99 2819.26,1452.28 2802.77,1461.50 2775.53,1413.15 2761.16,1421.19 2796.33,1483.62"/>
    <poly id="150359341" type="building" color="255,230,230" fill="1" layer="-1.00" shape="2748.17,1404.23 2763.89,1395.42 2709.72,1299.57 2694.01,1308.39 2748.17,1404.23"/>
    <poly id="156944981" type="amenity" color="237,199,199" fill="1" layer="-1.00" shape="2902.32,1788.42 2939.71,1753.78 2979.37,1740.95 2986.75,1823.74 2959.26,1832.59 2902.32,1788.42"/>
    <poly id="159817726" type="tourism" color="207,245,201" fill="1" layer="-2.00" shape="5157.80,2782.07 5136.07,2743.03 5124.27,2712.85 5106.85,2705.83 5103.37,2686.87 5093.08,2634.70 5154.31,2620.58 5214.67,2603.80 5212.45,2571.96 5215.32,2570.81 5218.87,2568.99 5249.32,2558.59 5278.40,2543.67 5281.70,2562.43 5285.50,2581.96 5286.30,2590.16 5285.80,2598.35 5284.32,2605.67 5281.46,2617.40 5266.98,2635.03 5245.89,2659.55 5244.59,2661.59 5238.66,2678.37 5236.94,2682.74 5230.43,2702.51 5219.06,2728.22 5215.40,2732.55 5210.17,2737.83 5206.27,2741.75 5202.18,2745.97 5177.95,2765.23 5157.80,2782.07"/>
    <poly id="160766806" type="building" color="255,230,230" fill="1" layer="-1.00" shape="4840.83,2617.22 4840.75,2610.99 4834.52,2611.06 4834.34,2597.32 4835.26,2597.31 4835.09,2584.42 4834.18,2584.43 4834.12,2580.50 4831.18,2580.53 4831.16,2579.44 4818.81,2579.60 4818.82,2580.69 4815.80,2580.73 4815.85,2584.66 4814.99,2584.67 4815.16,2597.57 4816.03,2597.55 4816.11,2604.30 4820.64,2604.25 4820.68,2606.89 4827.11,2606.80 4827.18,2611.16 4825.72,2611.18 4825.80,2617.42 4823.77,2617.44 4823.93,2629.56 4824.67,2629.56 4824.70,2632.56 4825.39,2632.56 4825.43,2635.70 4830.15,2635.63 4830.11,2632.64 4831.89,2632.63 4831.85,2629.79 4835.02,2629.75 4835.06,2632.59 4836.87,2632.57 4836.92,2635.54 4841.67,2635.49 4841.63,2632.35 4842.38,2632.34 4842.35,2629.33 4842.92,2629.32 4842.75,2617.19 4840.83,2617.22"/>
    <poly id="161123927" type="building" color="255,230,230" fill="1" layer="-1.00" shape="6005.32,1320.74 6000.39,1306.47 5997.39,1307.50 5996.45,1304.77 5999.44,1303.74 5990.35,1277.45 5979.86,1281.06 5981.91,1286.99 5987.08,1285.21 5988.06,1288.03 5982.88,1289.82 5994.82,1324.35 6005.32,1320.74"/>
    <poly id="161123928" type="building" color="255,230,230" fill="1" layer="-1.00" shape="5949.16,1116.78 5953.21,1128.30 5962.62,1125.02 5963.16,1126.53 5975.15,1122.36 5974.62,1120.84 5983.78,1117.65 5979.73,1106.13 5969.85,1109.58 5969.58,1108.79 5959.02,1112.48 5959.29,1113.26 5949.16,1116.78"/>
    <poly id="161123930" type="building" color="255,230,230" fill="1" layer="-1.00" shape="6057.56,1364.43 6049.38,1361.56 6045.40,1372.82 6040.50,1371.10 6040.62,1370.75 6038.20,1369.89 6035.37,1377.87 6050.86,1383.31 6060.43,1385.89 6064.08,1375.57 6058.51,1373.61 6060.84,1367.02 6057.10,1365.70 6057.56,1364.43"/>
    <poly id="161123936" type="building" color="255,230,230" fill="1" layer="-1.00" shape="6057.71,1180.31 6070.09,1215.69 6076.31,1213.53 6077.99,1218.37 6080.41,1217.53 6078.73,1212.70 6085.84,1210.23 6087.40,1214.69 6090.53,1213.60 6090.92,1214.73 6093.28,1213.90 6092.88,1212.78 6106.71,1207.99 6103.04,1197.51 6076.61,1206.69 6074.61,1200.97 6076.35,1200.36 6068.08,1176.70 6057.71,1180.31"/>
    <poly id="161123938" type="building" color="255,230,230" fill="1" layer="-1.00" shape="6046.22,1299.49 6052.64,1318.53 6067.68,1313.50 6069.95,1320.20 6075.48,1317.53 6080.84,1316.56 6076.97,1305.10 6080.77,1303.82 6079.60,1300.33 6099.17,1293.78 6095.53,1282.98 6093.35,1283.71 6091.04,1276.87 6089.13,1277.53 6091.42,1284.36 6072.04,1290.85 6070.08,1285.04 6059.01,1288.75 6060.97,1294.56 6046.22,1299.49"/>
    <poly id="161123941" type="building" color="255,230,230" fill="1" layer="-1.00" shape="6006.68,1309.11 6022.36,1303.72 6024.21,1309.09 6025.44,1308.66 6026.15,1310.73 6042.73,1305.05 6042.01,1302.98 6043.17,1302.59 6041.30,1297.23 6056.96,1291.85 6055.54,1287.77 6054.85,1288.01 6052.74,1281.92 6036.74,1287.41 6034.68,1281.45 6029.48,1283.24 6028.63,1280.79 6021.77,1283.15 6022.61,1285.59 6017.40,1287.39 6019.46,1293.34 6003.79,1298.71 6005.90,1304.81 6005.27,1305.01 6006.68,1309.11"/>
    <poly id="161123943" type="building" color="255,230,230" fill="1" layer="-1.00" shape="5994.10,1109.52 5992.37,1104.56 5988.33,1105.95 5990.06,1110.91 5994.10,1109.52"/>
    <poly id="161123945" type="building" color="255,230,230" fill="1" layer="-1.00" shape="5967.64,1347.54 5973.72,1351.36 5981.22,1339.48 5975.14,1335.68 5967.64,1347.54"/>
    <poly id="161123946" type="building" color="255,230,230" fill="1" layer="-1.00" shape="6156.23,797.04 6146.08,781.41 6137.96,786.64 6148.10,802.28 6156.23,797.04"/>
    <poly id="161123947" type="building" color="255,230,230" fill="1" layer="-1.00" shape="6149.32,1256.58 6145.33,1245.55 6135.77,1248.98 6139.76,1260.01 6149.32,1256.58"/>
    <poly id="161123948" type="building" color="255,230,230" fill="1" layer="-1.00" shape="6031.30,1315.16 6033.25,1320.95 6046.40,1316.56 6044.45,1310.76 6031.30,1315.16"/>
    <poly id="161123950" type="building" color="255,230,230" fill="1" layer="-1.00" shape="6019.72,1342.52 6025.94,1339.74 6020.53,1327.73 6014.30,1330.51 6019.72,1342.52"/>
    <poly id="161123954" type="building" color="255,230,230" fill="1" layer="-1.00" shape="6036.49,1337.10 6028.52,1314.01 6021.82,1316.31 6029.79,1339.40 6036.49,1337.10"/>
    <poly id="161123957" type="building" color="255,230,230" fill="1" layer="-1.00" shape="6159.41,1249.33 6162.49,1246.49 6160.04,1243.83 6156.95,1246.67 6159.41,1249.33"/>
    <poly id="161123961" type="building" color="255,230,230" fill="1" layer="-1.00" shape="6097.04,1230.73 6116.58,1224.02 6113.42,1214.92 6093.90,1221.63 6097.04,1230.73"/>
    <poly id="161123964" type="building" color="255,230,230" fill="1" layer="-1.00" shape="6102.17,1294.73 6110.24,1292.03 6108.95,1288.22 6100.88,1290.92 6102.17,1294.73"/>
    <poly id="161123965" type="building" color="255,230,230" fill="1" layer="-1.00" shape="5976.73,1353.18 5982.81,1356.99 5990.31,1345.12 5984.23,1341.31 5976.73,1353.18"/>
    <poly id="161123966" type="building" color="255,230,230" fill="1" layer="-1.00" shape="5985.62,1358.82 5991.70,1362.63 5999.20,1350.77 5993.12,1346.95 5985.62,1358.82"/>
    <poly id="161123972" type="building" color="255,230,230" fill="1" layer="-1.00" shape="6173.19,680.85 6167.41,671.60 6173.70,667.71 6165.44,654.49 6159.15,658.39 6149.90,643.60 6124.45,659.40 6128.38,665.69 6127.76,666.36 6127.67,667.28 6128.16,668.05 6129.02,668.38 6129.90,668.13 6133.95,674.61 6152.35,663.18 6160.03,675.45 6141.56,686.92 6157.40,712.25 6167.62,705.91 6168.04,706.59 6161.52,710.63 6167.55,720.29 6174.08,716.24 6175.23,718.09 6165.13,724.36 6168.86,730.31 6168.27,730.96 6168.18,731.87 6168.67,732.65 6169.52,732.97 6170.36,732.73 6174.70,739.66 6200.11,723.90 6190.87,709.13 6197.13,705.24 6188.91,692.10 6182.65,695.99 6176.79,686.61 6177.10,686.13 6176.97,685.55 6176.48,685.00 6176.85,684.54 6177.07,684.00 6177.09,683.40 6176.94,682.83 6176.61,682.33 6176.15,681.96 6175.59,681.76 6175.00,681.73 6174.42,681.90 6174.24,681.24 6173.78,680.83 6173.19,680.85"/>
    <poly id="161123974" type="building" color="255,230,230" fill="1" layer="-1.00" shape="5997.73,1359.80 6020.21,1371.07 6022.68,1366.17 6021.06,1365.36 6022.39,1362.74 6001.53,1352.28 5997.73,1359.80"/>
    <poly id="161123977" type="building" color="255,230,230" fill="1" layer="-1.00" shape="6072.89,1283.08 6089.13,1277.53 6091.04,1276.87 6093.45,1276.05 6089.60,1264.85 6069.03,1271.88 6072.89,1283.08"/>
    <poly id="161124311" type="amenity" color="237,199,199" fill="1" layer="-1.00" shape="6120.53,781.96 6158.93,766.56 6164.85,756.46 6165.32,747.77 6148.92,716.02 6143.62,714.58 6112.41,659.24 6101.65,651.29 6125.29,635.37 6158.06,618.33 6251.35,768.21 6172.35,819.26 6127.08,798.43 6120.53,781.96"/>