<?xml version="1.0" encoding="UTF-8"?>

<!-- generated on 11/10/16 21:57:16 by SUMO duarouter Version 0.28.0
<?xml version="1.0" encoding="UTF-8"?>

<configuration xmlns:xsi="http://www.w3.org/2001/XMLSchema-instance" xsi:noNamespaceSchemaLocation="http://sumo.dlr.de/xsd/duarouterConfiguration.xsd">

    <input>
        <net-file value="net.net.xml"/>
        <trip-files value="trips.trips.xml"/>
    </input>

    <output>
        <output-file value="map.rou.xml"/>
    </output>

    <processing>
        <ignore-errors value="true"/>
    </processing>

    <time>
        <begin value="0"/>
        <end value="1000.0"/>
    </time>

    <report>
        <no-warnings value="true"/>
        <no-step-log value="true"/>
    </report>

</configuration>
-->

<routes xmlns:xsi="http://www.w3.org/2001/XMLSchema-instance" xsi:noNamespaceSchemaLocation="http://sumo.dlr.de/xsd/routes_file.xsd">
    
    <vehicle id="0" depart="0.00">
        <route edges="13860802 35006697#2 29036509#0 29036509#1 13798158#0 13798192 13798291#1 -241364282 -219537531 35078680 -35078500#5 -35078500#4 -35078500#3 -35078500#2 -35078500#1 -35078500#0 35145521#0 35145521#1 35145521#2 35145521#3 35145521#4 35145521#5 316459169#0 316459169#1 316459169#2 316459169#3 316459169#4 286085489 220234010#0 220234010#1 220234010#2 29035151 29035153 220234009#0 345573793#0 345573793#1 37221656 -125000475 37221655#1 125000464 449415306#0 449415306#1 449415306#2 345574066 351525683#1 210674290#3 210674290#4 342382077#0 342382077#1 210674289#4 210674292#0 210674292#1 210674298#0 210674298#1 210674298#2 210674298#3 -37857972#5 -37857972#4 -37857972#3 -37857972#2 -37857972#1 37857973#0 37857973#1"/>
    </vehicle>
    <vehicle id="1" depart="1.00">
        <route edges="-106334857#2 -106334857#1 -106334857#0 27289587#6 27289994#0 27289994#1 27289994#2 -161123865#1 -161123865#0 161123864 -351255844 351255846#0 351255846#1 351255846#2 351255846#3 -13799456#1 -13799456#0 13268420 434897741#4 64447160#0 64447160#1 351525651#0 351525651#1"/>
    </vehicle>
    <vehicle id="2" depart="2.00">
        <route edges="37141983#0 -37141983#0 35997812#4 35997812#5 35105022#0"/>
    </vehicle>
    <vehicle id="3" depart="3.00">
        <route edges="449447636 -212708375#0 206843929 206843931#0 206843931#1 206843931#2 35078502 35078501#0 35078501#1 35078501#2 35078501#3 35078501#4 35078501#5 35078501#6 -35105022#3 -35105022#2"/>
    </vehicle>
    <vehicle id="4" depart="4.00">
        <route edges="13798291#1 -241364282 -219537531 35078680 -35078500#5 -35078500#4 -35078500#3 -35078500#2 -35078500#1 -35078500#0 35145521#0 35145521#1 35145521#2 35145521#3 35145521#4 35145521#5 316459169#0 316459169#1 316459169#2 316459169#3 316459169#4 286085489 35997762 36905352 108480588#0 108480588#1 36996748 36996749#0 36996749#1 36996749#2 448871548 -37014841#4 -37014841#3 -37014841#2 -37014841#1 -37014841#0"/>
    </vehicle>
    <vehicle id="5" depart="5.00">
        <route edges="161124264#1 161124264#2 161124264#3 351525654#1 434897741#6 434897741#0 161123874#0 161123874#1 161123874#2 161123874#3 210673566#0 210673566#1 210673566#2 211339127#0 211339127#1 210673565#0 210673565#1 210673565#2 210673565#3 211339125#0 211339125#1 211339125#2 211339125#3 29035149 29035150#0 29035150#1 29035150#2 29035150#3 29035150#4 212708425#0 212708425#1 212708425#2 212708425#3 434879920 206867054#0 206867054#1 206867054#2 38001349 26248559#0 26248559#1 26248559#2 26248559#3 26248559#4 26248559#5 26248559#6 26248559#7 26248559#8 26248559#9 26248559#10 440389519 440389518 440117023 440389517#4 440389517#5 440389517#6 440389517#7 448568802 141476900 448858672 35104970#0 35104970#1 35104970#2 35104970#3 26248563 26248567#0 26248567#1 35104969 -30912876#2 -30912876#1 -30912876#0 34771961#0 34771961#1"/>
    </vehicle>
    <vehicle id="6" depart="6.00">
        <route edges="-36997781#1 -36997781#0 13797528#1 252338683 63844506#0 63844506#1 63844506#2 166972993 166973017#0 166973017#1 166973017#2 166973017#3 434878392#0 434878392#1 434878392#2 434878392#3 434878392#4 209633323 351525676 35997762 36905352 108480588#0 108480588#1 36996748 36996749#0 36996749#1 36996749#2 37336454#0 37336454#1 -37120544#1 -37120544#0 -37120543 -37120542#1 -37120542#0 448858679#0 -211339124#3 -211339124#2 -211339124#1 -211339124#0 37915263#0 -37393309#1 -37393310 -126570323#2 -126570323#1 -126570323#0 -160378807#1 -160378807#0"/>
    </vehicle>
    <vehicle id="7" depart="7.00">
        <route edges="26248565#1 35727408 35727410 35078680 -35078500#5 -35078500#4 -35078500#3 -35078500#2 -35078500#1 -35078500#0 35145521#0 35145521#1 35145521#2 35145521#3 35145521#4 35145521#5 316459169#0 316459169#1 316459169#2 316459169#3 316459169#4 286085489 220234010#0 220234010#1 220234010#2 29035151 29035153 220234009#0 220234009#1 220234009#2 211339122#0 211339122#1 308678930 351525652#0 351525652#1 351525652#2 211339126#0 211339126#1 211339126#2 434897741#2 434897741#3 -161124269#6 -161124269#5 -161124269#4 -161124269#3 -161124269#2 -161124269#1 37856971 -37856971"/>
    </vehicle>
    <vehicle id="9" depart="9.00">
        <route edges="37141979 62087619#0 62087619#1 62087619#2 62087619#3 30911255#0 30911255#1 30911255#2 120692683#2 13860800 13860802 35006697#2 29036509#0 29036509#1 29036509#2 29036509#3 13797865#0 13797865#1 13798716#2 -256605510#1 -256605510#0 -256605509#1 -256605509#0 -166972992#5 -166972992#4 -166972992#3 -166972992#2 -166972992#1 -166972992#0 -166972993 -63844506#2 -63844506#1 -63844506#0 -252338683 -13797528#1 -36005754#3 -36005754#2 -36997785#2 -63844519"/>
    </vehicle>
    <vehicle id="10" depart="10.00">
        <route edges="-200205516 37855525#1 37855525#2 -37855526#1 37855527#0 37855527#1 -166972992#1 -166972992#0 -166972993 -63844506#2 -63844506#1 -63844506#0 -252338683 -13797528#1 36997781#0"/>
    </vehicle>
    <vehicle id="11" depart="11.00">
        <route edges="440117025#1 35145153 448858674 -35145152#3 -35145152#2 -35145152#1 -35145152#0 35078500#4 35078500#5 35078499#0 406682433 34774629#2 219537531 241364282 34798406 241364281 13798089 448858673 13798541#0 13798541#1 13798545#0 13798545#1 30912874#0 30912874#1 30912874#2 35474000#0 30912878#0 30912878#1 36869474#0 41284280 -41284280"/>
    </vehicle>
    <vehicle id="12" depart="12.00">
        <route edges="-210673562#8 -210673562#7 -210673562#6 -210673562#5 -210673562#4 -210673562#3 -210673562#2 -210673562#1 -210673562#0 210673566#0 210673566#1 210673566#2 211339127#0 211339127#1 210673565#0 210673565#1 210673565#2 210673565#3 211339125#0 211339125#1 211339125#2 211339125#3 29035149 29035150#0 29035150#1 29035150#2 29035150#3 29035150#4 212708425#0 212708425#1 212708425#2 212708425#3 434879920 206867054#0 206867054#1 206867054#2 206867054#3 206867054#4 206867054#5 206867054#6 206867054#7 206867054#8 38001351 35997529#0 35997529#1 35997529#2 35997529#3 35997529#4 195652243#0 195652243#1 -195652232#6 -195652232#5 -195652232#4 195652238"/>
    </vehicle>
    <vehicle id="13" depart="13.00">
        <route edges="-37141970#0 351525652#1 351525652#2 211339126#0 211339126#1 211339126#2 434897741#2 13799462#0 13799462#1 13799462#2 13799462#3 13799456#0 13799456#1 351255845#0 351255845#1 351255844 161123863 161123865#0 161123865#1 253026354#0 253026354#1 253026354#2 120692683#0 120692683#1 120692683#2 13860800 13860802 35006697#2 29036509#0 29036509#1 29036509#2 29036509#3 29036509#4 13797785"/>
    </vehicle>
    <vehicle id="14" depart="14.00">
        <route edges="35006697#1 35006697#2 29036509#0 29036509#1 13798158#0 13798192 13798291#1 -241364282 -219537531 35078680 -35078500#5 -35078500#4 -35078500#3 -35078500#2 -35078500#1 -35078500#0 35145521#0 35145521#1 35145521#2 35145521#3 35145521#4 35145521#5 316459169#0 316459169#1 316459169#2 316459169#3 316459169#4 286085489 220234010#0 220234010#1 220234010#2 29035151 29035153 220234009#0 345573793#0 345573793#1 37221656 -125000475 37221655#1 125000464 449415306#0 449415306#1 449415306#2 345574066 351525683#1 210674290#3 210674290#4 342382077#0 443685792#0 444418465"/>
    </vehicle>
    <vehicle id="15" depart="15.00">
        <route edges="27289587#8 -27289587#8 -27289587#7 27289994#0 27289994#1 27289994#2 253026351 253026357#0 27290127#0 27290127#1 -27290454#1 -27290454#0 27290486#1 38080447 351255906#0 351255906#1 -36357160#0 -36355828#3 -36355828#2 -36355828#1 -36355828#0"/>
    </vehicle>
    <vehicle id="16" depart="16.00">
        <route edges="-37221658#15 37221658#15 37221657 345574067 345574068#0 345574068#1 345574068#2 210673565#2 210673565#3 37937528 211339122#0 211339122#1 308678930 351525652#0 351525652#1 351525652#2 211339126#0 211339126#1 211339126#2 434897741#2 13799462#0 13799462#1 13799462#2 13799462#3 13799456#0 13799456#1 351255845#0 351255845#1 351255844 161123863 161123865#0 161123865#1 253026351 253026357#0 253026357#1 -27290327#2 -27290327#1 27290578#0 27290578#1 -27290455#1 -27290455#0 -36357160#1"/>
    </vehicle>
    <vehicle id="17" depart="17.00">
        <route edges="206873751#3 206873751#4 206873751#5 206873751#6 206873751#7 -27103806#1 -27103806#0 -166972992#5 -166972992#4 -166972992#3 -166972992#2 -166972992#1 -166972992#0 166973017#0 166973017#1 166973017#2 166973017#3 434878392#0 434878392#1 434878392#2 434878392#3 434878392#4 209633323 351525676 35997762 36905352 108480588#0 108480588#1 36996748 36996749#0 36996749#1 36996749#2 37336454#0 37336454#1 -37120544#1 -37120544#0 -37120543 -37120542#1 -37120542#0 448858679#0 -211339124#3 -211339124#2 316864620 -316864620"/>
    </vehicle>
    <vehicle id="18" depart="18.00">
        <route edges="30912901#0 -30912901#0 37113032#0 37113032#1 -27149266#7 -27149266#6 -27149266#5 -27149266#4 -27149266#3 -27149266#2 37855530#0 37855530#1 -37855530#1"/>
    </vehicle>
    <vehicle id="19" depart="19.00">
        <route edges="-37221658#8 -37221658#7 -37221658#6 -37221658#5 -37221658#4 -37221658#3 -37221658#2 -37221658#1 -37221658#0 -210673562#4 -210673562#3 -210673562#2 -210673562#1 -210673562#0 -24812056 211339126#0 211339126#1 211339126#2 434897741#2 13799462#0 13799462#1 13799462#2 13799462#3 13799456#0 13799456#1 351255845#0 351255845#1 351255844 161123863 161123865#0 161123865#1 253026351 253026357#0 27290127#0 27290127#1 -27290454#1 -27290454#0 27290486#1 38080447 351255906#0 351255906#1 -36357160#0 -36355828#3 -351255902#1"/>
    </vehicle>
    <vehicle id="20" depart="20.00">
        <route edges="126568160#1 -351525686#1 126568161 125000467#1 448858677 125000470#3 210674290#1 210674290#2 210674290#3 210674290#4 342382077#0 342382077#1 210674289#4 210674292#0 210674292#1 210674298#0 126570322 -446873318#1 37393309#0 -37393310"/>
    </vehicle>
    <vehicle id="23" depart="23.00">
        <route edges="-443218710 443218709#1 -443218708 152618120#1 152618120#2 -210673562#7 -210673562#6 -210673562#5 -210673562#4 -210673562#3 -210673562#2 -210673562#1 -210673562#0 210673566#0 210673566#1 210673566#2 211339127#0 211339127#1 210673565#0 210673565#1 210673565#2 210673565#3 211339125#0 211339125#1 211339125#2 211339125#3 29035149 29035150#0 29035150#1 29035150#2 29035150#3 29035150#4 36905352 108480588#0 108480588#1 36996748"/>
    </vehicle>
    <vehicle id="24" depart="24.00">
        <route edges="240887999#1 240887999#2 240887999#3 240887999#4 240887999#5 -27103806#4 -27103806#3 -27103806#2 -27103806#1 -27103806#0 256605509#0 256605509#1 37338734#0 37338734#1 37143412"/>
    </vehicle>
    <vehicle id="25" depart="25.00">
        <route edges="-210674293 37221652#0 37221652#1 37221652#2 37221652#3 211339124#0 211339124#1 211339124#2 211339124#3 -448858679#0 37120542#0 37120542#1 37120543 37120544#0 37120544#1 37120544#2 37120544#3 37120544#4 37120544#5 -37014841#4 -37014841#3 -37014841#2 -37014841#1 36966144 36966145 36965448 36996352#0 36996352#1 -26248558#0 36996349"/>
    </vehicle>
    <vehicle id="26" depart="26.00">
        <route edges="63844510#1 63844500 36997786 252338684 252338680 63844506#2 166972993 166972992#0 166972992#1 166972992#2 166972992#3 166972992#4 166972992#5 256605509#0 256605509#1 256605510#0 256605510#1 13798688#0 13798688#1 13798768 13797988#0 13797988#1 4257028#1 13798242#0 30912874#0 30912874#1 -30912881#1 -30912881#0 35541722 30911283#0 30911283#1 30911283#2 34628257#0 34628257#1 34628257#2 34628257#3 34628257#4 34628257#5 34628257#6 34628257#7 434878397#0 434878397#1 212708375#0 212708375#1 -450902731 106334852 434878394#0 434878394#1 -434878398#1 -434878398#0 434878398#0"/>
    </vehicle>
    <vehicle id="28" depart="28.00">
        <route edges="37855525#7 195652243#1 195652243#2 -35997529#5 -35997529#4 -35997529#3 -35997529#2 -35997529#1 -35997529#0 434878392#0 434878392#1 434878392#2 434878392#3 434878392#4 209633323 351525676 220234010#0 220234010#1 220234010#2 29035151 29035153 220234009#0 220234009#1 220234009#2 211339122#0 211339122#1 308678930 351525652#0 351525652#1 351525652#2 211339126#0 211339126#1 211339126#2 434897741#2 434897741#3 -161124269#6 -161124269#5 161124269#5"/>
    </vehicle>
    <vehicle id="29" depart="29.00">
        <route edges="351525659#0 351525659#1 351525660 434878389#1 349643787#0 349643787#1 349643787#2 209633322#0 209633322#1 286085489 220234010#0 220234010#1 220234010#2 29035151 29035153 220234009#0 345573793#0 345573793#1 37221656 -125000475 37221655#1 125000464 449415306#0 449415306#1 449415306#2 345574066 351525683#1 210674290#3 210674290#4 342382077#0 342382077#1 210674289#4 210674292#0 37914791 449412447#0 449412447#1 -37221658#12 -37221658#11 -37221658#10 -446867801 446867801"/>
    </vehicle>
    <vehicle id="30" depart="30.00">
        <route edges="-37141970#0 351525652#1 351525652#2 24812056 210673562#0 210673562#1 210673562#2 210673562#3 210673562#4 37221658#0 37221658#1 37221658#2 37221658#3 37221658#4 152189731#0 152189731#1 -311277096#1 311277091"/>
    </vehicle>
    <vehicle id="31" depart="31.00">
        <route edges="-37855522 197100021#1 -440117189 -35997529#1 -35997529#0 434878392#0 434878392#1 434878392#2 434878392#3 434878392#4 209633323 351525676 220234010#0 220234010#1 220234010#2 29035151 29035153 220234009#0 345573793#0 345573793#1 37221656 -125000475 37221655#1 125000464 449415306#0 449415306#1 449415306#2 345574066 351525683#1 210674290#3 210674290#4 342382077#0 342382077#1 210674289#4 210674292#0 210674292#1 210674298#0 210674298#1 210674298#2 210674298#3 -37857972#5 -37857972#4 -37857972#3 -37857972#2 -37857972#1 37857973#0"/>
    </vehicle>
    <vehicle id="32" depart="32.00">
        <route edges="-37112932 -27103806#1 -27103806#0 -166972992#5 -166972992#4 -166972992#3 -166972992#2 -166972992#1 -166972992#0 166973017#0 166973017#1 166973017#2 166973017#3 434878392#0 434878392#1 434878392#2 434878392#3 434878392#4 209633323 351525676 220234010#0 220234010#1 220234010#2 29035151 29035153 220234009#0 220234009#1 220234009#2 211339122#0 211339122#1 308678930 351525652#0 351525652#1 351525652#2 211339126#0 211339126#1 211339126#2 434897741#2 13799462#0 161124092 -161124274"/>
    </vehicle>
    <vehicle id="33" depart="33.00">
        <route edges="26248559#6 26248559#7 26248559#8 26248559#9 26248559#10 440389519 440389518 440117023 440389517#4 440389517#5 440389517#6 440389517#7 448568802 141476900 -26248564#3 -26248564#2 -26248564#1 -26248564#0 34774629#0 34774629#1 34774629#2 35078680 -35078500#5 -35078500#4 -35078500#3 -35078500#2 -35078500#1 -35078500#0 35145521#0 35145521#1 35145521#2 35145521#3 35145521#4 35145521#5 316459169#0 316459169#1 316459169#2 316459169#3 316459169#4 286085489 220234010#0 220234010#1 220234010#2 29035151 29035153 220234009#0 345573793#0 345573793#1 37221656 -125000475 37221655#1 125000464 449415306#0 449415306#1 449415306#2 345574066 351525683#1 210674290#3 210674290#4 342382077#0 342382077#1 210674289#4 210674292#0 210674292#1 210674298#0 210674298#1"/>
    </vehicle>
    <vehicle id="34" depart="34.00">
        <route edges="-35104764 13797951#1 13797951#2 13798768 13798716#1 13798716#2 -256605510#1 -256605510#0 -256605509#1 -256605509#0 -166972992#5 -166972992#4 -166972992#3 -166972992#2 -166972992#1 -166972992#0 166973017#0 166973017#1 166973017#2 166973017#3 434878392#0 434878392#1 434878392#2 434878392#3 434878392#4 209633323 351525676 220234010#0 220234010#1 220234010#2 29035151 29035153 220234009#0 220234009#1 220234009#2 211339122#0 211339122#1 308678930 351525652#0 351525652#1 351525652#2 211339126#0 211339126#1 211339126#2 434897741#2 434897741#3 434897741#4 434897741#5 434897741#6 434897741#0 161123874#0 161123874#1 37857253 161124287#0 161124287#1 349599164#0 349599164#1 152618130#4 152618130#0 152618130#1 37857250#0 -37857250#0"/>
    </vehicle>
    <vehicle id="36" depart="36.00">
        <route edges="34968603#1 34968603#2 34968603#3 449447637 449447636 -212708375#0 -434878397#1 -434878397#0 -34628257#7 -34628257#6 -34628257#5 -34628257#4 -34628257#3 -34628257#2 34628257#2"/>
    </vehicle>
    <vehicle id="37" depart="37.00">
        <route edges="-160379534#1 -160379534#0 160379536 351525659#1 351525660 434878389#1 349643787#0 349643787#1 349643787#2 209633322#0 209633322#1 286085489 220234010#0 220234010#1 220234010#2 29035151 29035153 220234009#0 345573793#0 345573793#1 37221656 -125000475 37221655#1 125000464 449415306#0 449415306#1 449415306#2 345574066 351525683#1 210674290#3 210674290#4 342382077#0 342382077#1 210674289#4 210674292#0 37914791 449412447#0 449412447#1 -37221658#12 -37221658#11 -37221658#10 -37221658#9 -37221658#8 -311277101#3"/>
    </vehicle>
    <vehicle id="38" depart="38.00">
        <route edges="37221658#12 37221658#13 37221658#14 37221658#15 37221657 345574067 345574068#0 345574068#1 345574068#2 210673565#2 210673565#3 211339125#0 211339125#1 211339125#2 211339125#3 29035149 29035150#0 29035150#1 29035150#2 29035150#3 29035150#4 212708425#0 212708425#1 212708425#2 212708425#3 434879920 206867054#0 206867054#1 206867054#2 206867054#3 206867054#4 206867054#5 206867054#6 206867054#7 206867054#8 38001351 35997529#0 35997529#1 35997529#2 35997529#3 35997529#4 195652243#0 195652243#1 -195652232#6 -195652232#5 -195652232#4 -195652232#3 -195652232#2 -195652232#1 311394891 -195652234#3 -311394889 -311394892#0"/>
    </vehicle>
    <vehicle id="39" depart="39.00">
        <route edges="36997781#1 -36997781#1 -36997781#0 13797528#1 252338683 63844506#0 63844506#1 63844506#2 166972993 166972992#0 166972992#1 166972992#2 166972992#3 166972992#4 166972992#5 27103806#0 27103806#1 206873742#0 206873742#1 318698155 -318698151#1"/>
    </vehicle>
    <vehicle id="40" depart="40.00">
        <route edges="-209633322#1 209633322#1 286085489 35997762 212708425#0 212708425#1 212708425#2 212708425#3 434879920 206867054#0 206867054#1 206867054#2 206867054#3 206867054#4 206867054#5 206867054#6 206867054#7 206867054#8 434879919#0 434879919#1 434879919#2 434879919#3 434879919#4 351525662 166973018"/>
    </vehicle>
    <vehicle id="42" depart="42.00">
        <route edges="-446873319 -37914789 400581007#1 -316864613#0 -37221653 211339124#3 -448858679#0 37120542#0 37120542#1 37120543 37120544#0 37120544#1 -37336454#1 -37336454#0 -36996749#2 -36996749#1 -36996749#0 -36996748 36996747#0 -37194468 36996747#2 -37120135 212708425#3 434879920 206867054#0 206867054#1 206867054#2 206867054#3 206867054#4 206867054#5 206867054#6 206867054#7 206867054#8 434879919#0 434879919#1 434879919#2 434879919#3 434879919#4 351525662 166972993 166972992#0 166972992#1 166972992#2 166972992#3 166972992#4 166972992#5 27103806#0 27103806#1 206873742#0 206873742#1 206873742#2 206873742#3 206873742#4 206873742#5 206873740#2 206873740#3 -318698154#3 -318698154#2"/>
    </vehicle>
    <vehicle id="43" depart="43.00">
        <route edges="240990100#1 240990100#2 351525663 351525677#0 351525677#1 351525669 166973017#0 166973017#1 166973017#2 166973017#3 434878392#0 434878392#1 434878392#2 434878392#3 434878392#4 209633323 351525676 220234010#0 220234010#1 220234010#2 29035151 29035153 220234009#0 220234009#1 220234009#2 211339122#0 211339122#1 308678930 351525652#0 351525652#1 351525652#2 211339126#0 211339126#1 211339126#2 434897741#2 13799462#0 13799462#1 13799462#2 13799462#3 13799456#0 13799456#1 351255845#0 351255845#1 351255844 161123863 161123865#0 161123865#1 253026351 253026357#0 27290127#0 27290127#1 -27290454#1 -27290454#0 27290486#1 38080447 351255906#0"/>
    </vehicle>
    <vehicle id="44" depart="44.00">
        <route edges="-106334867#1 106334856#0 106334856#1 -35078500#1 -35078500#0 -35078501#6 -35078501#5 -35078501#4 -35078501#3 -35078501#2 -35078501#1 -35078501#0 -35078502 -206843931#2 -206843931#1 -206843931#0 35078498 434878397#0 434878397#1 212708375#0 212708375#1 -212708375#1"/>
    </vehicle>
    <vehicle id="45" depart="45.00">
        <route edges="-37857972#4 37857972#4 37857972#5 -210674298#3 -210674298#2 -210674298#1 -210674298#0 -37915264 210674289#1 210674289#2 37221650#0 37221650#1 210674290#6 210674290#7 210674290#0 125000467#0 125000467#1 448858678 448858676 345573795 211339125#2 211339125#3 29035149 29035150#0 29035150#1 29035150#2 29035150#3 29035150#4 212708425#0 212708425#1 212708425#2 212708425#3 434879920 206867054#0 206867054#1 206867054#2 38001349 26248559#0 26248559#1 26248559#2 26248559#3 26248559#4 26248559#5 26248559#6 26248559#7 26248559#8 26248559#9 26248559#10 440389519 440389518 440117023 440389517#4 440389517#5 440389517#6 440389517#7 448568802 141476900 -26248564#3 -26248564#2 -26248564#1 -26248564#0 34774629#0 34774629#1 34774629#2 219537531 241364282 34798406 241364281 13798089 448858673 13798541#0 13798541#1 13798545#0 13798545#1 30912874#0 30912874#1 -30912881#1 -30912881#0 35541722 30911283#0 30911283#1 30911283#2 -30911283#2"/>
    </vehicle>
    <vehicle id="46" depart="46.00">
        <route edges="351525677#0 351525677#1 351525669 166973017#0 166973017#1 166973017#2 166973017#3 434878392#0 434878392#1 434878392#2 434878392#3 434878392#4 209633323 351525676 220234010#0 220234010#1 35997763#0 -37856825 37856825"/>
    </vehicle>
    <vehicle id="47" depart="47.00">
        <route edges="263330573#3 263330573#4 263330573#5 263330573#6 228569586 -448867800 -13798697 13798716#0 13798716#1 13798716#2 -256605510#1 -256605510#0 -256605509#1 -256605509#0 -166972992#5 -166972992#4 -166972992#3 -166972992#2 -166972992#1 -166972992#0 166973017#0 166973017#1 166973017#2 166973017#3 434878392#0 434878392#1 434878392#2 434878392#3 434878392#4 209633323 351525676 220234010#0 220234010#1 220234010#2 29035151 29035153 220234009#0 220234009#1 220234009#2 211339122#0 211339122#1 308678930 351525652#0 351525652#1 351525652#2 24812056 210673562#0 210673562#1 210673562#2 210673562#3 210673562#4 37221658#0 37221658#1 37221658#2 37221658#3 37221658#4 152189731#0 152189731#1 152189731#2 152189730#3 152189730#4"/>
    </vehicle>
    <vehicle id="48" depart="48.00">
        <route edges="-35997529#4 -35997529#3 -35997529#2 -35997529#1 -35997529#0 434878392#0 434878392#1 434878392#2 434878392#3 434878392#4 209633323 351525676 220234010#0 220234010#1 220234010#2 29035151 29035153 220234009#0 220234009#1 220234009#2 211339122#0 211339122#1 308678930 351525652#0 351525652#1 351525652#2 24812056 210673566#0 210673566#1 311272094#0 311272094#1 -443789659 -37914797#0 -311272090#2 -311272090#1 -311272091 311272091"/>
    </vehicle>
    <vehicle id="49" depart="49.00">
        <route edges="311272093 210674294#2 211339127#0 211339127#1 210673565#0 210673565#1 210673565#2 210673565#3 211339125#0 211339125#1 211339125#2 211339125#3 29035149 29035150#0 29035150#1 29035150#2 29035150#3 29035150#4 212708425#0 212708425#1 212708425#2 212708425#3 434879920 206867054#0 206867054#1 206867054#2 206867054#3 206867054#4 206867054#5 206867054#6 206867054#7 206867054#8 434879919#0 434879919#1 434879919#2 434879919#3 434879919#4 351525662 166972993 166972992#0 37112931#0 -37112931#0"/>
    </vehicle>
    <vehicle id="50" depart="50.00">
        <route edges="-37916220 37916219 210673565#0 210673565#1 210673565#2 210673565#3 211339125#0 211339125#1 211339125#2 211339125#3 29035149 29035150#0 29035150#1 29035150#2 29035150#3 29035150#4 212708425#0 212708425#1 212708425#2 212708425#3 434879920 206867054#0 206867054#1 206867054#2 206867054#3 206867054#4 206867054#5 206867054#6 206867054#7 206867054#8 434879919#0 434879919#1 434879919#2 434879919#3 434879919#4 351525662 166972993 166972992#0 166972992#1 166972992#2 166972992#3 166972992#4 166972992#5 27103806#0 27103806#1 27103806#2 27103806#3 27103806#4 240886294 240884742#0 -240884742#0"/>
    </vehicle>
    <vehicle id="51" depart="51.00">
        <route edges="37014841#0 36966144 36966145 36965448 36996352#0 36996352#1 -26248558#0 26248552 37120133#0 37120133#1 37120133#2 308678923#1 434878392#4 209633323 351525676 220234010#0 220234010#1 220234010#2 29035151 29035153 220234009#0 220234009#1 220234009#2 211339122#0 211339122#1 308678930 351525652#0 351525652#1 351525652#2 211339126#0 211339126#1 211339126#2 434897741#2 13799462#0 161124092 -161124274"/>
    </vehicle>
    <vehicle id="52" depart="52.00">
        <route edges="27290486#1 34640002 27290456#2 27290217#0 27290217#1 27290217#2 27290217#3 27290217#4 120693470 120692683#1 120692683#2 13860800 13860802 35006697#2 29036509#0 29036509#1 13798158#0 13798192 13798291#1 -241364282 -219537531 -34774629#2 -34774629#1 -34774629#0 26248564#0 26248564#1 26248564#2 440389514 440389517#1 440389517#2 440389517#3 440389517#4 440389515 -256605511#1 -256605511#0 -35997529#10 -35997529#9 195652234#0 195652234#1 195652234#2 195652234#3 -311394891 195652232#1 195652232#2 195652232#3 195652238"/>
    </vehicle>
    <vehicle id="53" depart="53.00">
        <route edges="434878392#0 37855519#0 37855519#1 37855523#0 37855523#1 197100021#0 197100021#1 -440117189 35997529#2 35997529#3 35997529#4 195652243#0 195652243#1 -195652232#6 -195652232#5 -195652232#4 -195652232#3 -195652232#2 -195652232#1 -195652240#1 -195652236#2 195652231#0 311394890 311394895#5 37855525#2 -37855526#1 37855527#0 254724123"/>
    </vehicle>
    <vehicle id="54" depart="54.00">
        <route edges="-311394895#5 -311394890 -195652231#0 195652236#2 195652240#1 195652232#1 195652232#2 195652232#3 195652232#4 195652232#5 195652232#6 195652243#2 -35997529#5 -35997529#4 -35997529#3 -35997529#2 -35997529#1 -35997529#0 434878392#0 434878392#1 434878392#2 434878392#3 434878392#4 209633323 351525676 220234010#0 220234010#1 220234010#2 29035151 29035153 220234009#0 220234009#1 37142655#0 37142655#1 37141970#6 37141970#7 37141970#8 37141970#9 37141970#10 37141970#11 106334857#1 106334857#2 -37141980#2 -37141980#1"/>
    </vehicle>
    <vehicle id="55" depart="55.00">
        <route edges="-38080329 38080329 161123865#0 161123865#1 253026354#0 253026354#1 253026354#2 120692683#0 120692683#1 120692683#2 13860800 13860802 35006697#2 29036509#0 29036509#1 13798158#0 13798192 13798291#1 -241364282 -219537531 219537531 241364282 34798406 241364281 13798089 448858673 13798541#0 13798105 241364287#0 241364287#1 4257028#3 345566829 345566831 29036508"/>
    </vehicle>
    <vehicle id="56" depart="56.00">
        <route edges="-36996354#1 -37352975 157160144 37120133#1 206867054#5 206867054#6 206867054#7 206867054#8 434879919#0 434879919#1 434879919#2 434879919#3 434879919#4 351525662 166972993 166972992#0 37112931#0"/>
    </vehicle>
    <vehicle id="57" depart="57.00">
        <route edges="37855531#2 256605511#1 280570948 440389517#6 440389517#7 448568802 141476900 -26248564#3 -26248564#2 -26248564#1 -26248564#0 34774629#0 34774629#1 34774629#2 35078680 -35078500#5 -35078500#4 -35078500#3 -35078500#2 -35078500#1 -35078500#0 -35078501#6 -35078501#5 -35078501#4 -35078501#3 -35078501#2 -35078501#1 -35078501#0 -35078502 -206843931#2 -206843931#1 -206843931#0 35078498 434878397#0 434878397#1 212708375#0 212708375#1 -450902731 106334852 434878394#0 434878394#1 -434878398#1 -434878398#0 -29036514 -228657552 30911255#0 30911255#1 30911255#2 30911255#3 228657550 118148373#0 118148373#1 118148373#2 -27290456#4 -27290456#3 -27290456#2 -27290456#1 -27290456#0 161124211#0 161124211#1 351255906#0 351255906#1 -36357160#0 -36355828#3"/>
    </vehicle>
    <vehicle id="58" depart="58.00">
        <route edges="13797988#1 4257028#1 13798242#0 30912874#0 30912874#1 -30912881#1 -30912881#0 35541722 30911283#0 30911283#1 30911283#2 34628257#0 34628257#1 34628257#2 34628257#3 34628257#4 34628257#5 34628257#6 34628257#7 434878397#0 434878397#1 212708375#0 212708375#1 -450902731 106334852 434878394#0 434878394#1 -434878398#1 -434878398#0 -29036514 -228657552 30911255#0 30911255#1 30911255#2 120692683#2 13860800 13860802 35006697#2 29036509#0 29036509#1 29036509#2"/>
    </vehicle>
    <vehicle id="59" depart="59.00">
        <route edges="37338735 236978557 -37143413#1 -37143413#0 -448858672 -26248564#3 440389514 440389517#1 440389517#2 440389517#3 440389517#4 440389515 -256605511#1 -256605511#0 -35997529#10 -35997529#9 -35997529#8 -35997529#7 -35997529#6 -35997529#5 -35997529#4 -35997529#3 -35997529#2 440117189 -440117189"/>
    </vehicle>
    <vehicle id="60" depart="60.00">
        <route edges="62087621#2 62087621#3 27291749 27289994#2 -161123865#1 -161123865#0 161123864 -351255844 351255846#0 351255846#1 351255846#2 351255846#3 -13799456#1 -13799456#0 13268420 434897741#4 434897741#5 434897741#6 434897741#0 161123874#0 161123874#1 161123874#2 161123874#3 210673566#0 210673566#1 210673566#2 211339127#0 211339127#1 210673565#0 210673565#1 210673565#2 210673565#3 211339125#0 211339125#1 211339125#2 211339125#3 29035149 29035150#0 29035150#1 29035150#2 29035150#3 29035150#4 -35997762 -286085489 -209633322#1 -209633322#0 -349643787#2 -349643787#1 -349643787#0 -434878389#1 -434878389#0 160379543#0 160379543#1 351525659#3 351525659#4 351525659#0 -160379536 160379536"/>
    </vehicle>
    <vehicle id="61" depart="61.00">