
<nodes>
  <node id="0/0" x="0"   y="0"  type="traffic_light" />
  <node id="0/1" x="100" y="0"  type="traffic_light" />
  <node id="0/2" x="50"  y="50" />
</nodes>

