<?xml version="1.0" encoding="UTF-8"?>

<!-- generated on 11/16/16 01:06:00 by SUMO netconvert Version 0.28.0
<?xml version="1.0" encoding="UTF-8"?>

<configuration xmlns:xsi="http://www.w3.org/2001/XMLSchema-instance" xsi:noNamespaceSchemaLocation="http://sumo.dlr.de/xsd/netconvertConfiguration.xsd">

    <input>
        <sumo-net-file value="net.net.xml"/>
    </input>

    <processing>
        <no-turnarounds value="true"/>
        <offset.disable-normalization value="true"/>
        <lefthand value="false"/>
        <junctions.corner-detail value="0"/>
    </processing>

</configuration>
-->

<net version="0.27" xmlns:xsi="http://www.w3.org/2001/XMLSchema-instance" xsi:noNamespaceSchemaLocation="http://sumo.dlr.de/xsd/net_file.xsd">

    <location netOffset="0.00,0.00" convBoundary="0.00,0.00,400.00,400.00" origBoundary="0.00,0.00,400.00,400.00" projParameter="!"/>

    <edge id=":A0_0" function="internal">
        <lane id=":A0_0_0" index="0" speed="13.90" length="7.90" shape="-1.65,3.25 -1.34,1.11 -0.43,-0.43 1.11,-1.34 3.25,-1.65"/>
    </edge>
    <edge id=":A0_1" function="internal">
        <lane id=":A0_1_0" index="0" speed="13.90" length="2.80" shape="-1.65,3.25 -0.83,2.01 0.00,1.60 0.35,1.77"/>
    </edge>
    <edge id=":A0_4" function="internal">
        <lane id=":A0_4_0" index="0" speed="13.90" length="2.02" shape="0.35,1.77 0.83,2.01 1.65,3.25"/>
    </edge>
    <edge id=":A0_2" function="internal">
        <lane id=":A0_2_0" index="0" speed="13.90" length="2.58" shape="3.25,1.65 2.55,1.75 2.05,2.05 1.75,2.55 1.65,3.25"/>
    </edge>
    <edge id=":A0_3" function="internal">
        <lane id=":A0_3_0" index="0" speed="13.90" length="2.20" shape="3.25,1.65 2.01,0.83 1.69,0.19"/>
    </edge>
    <edge id=":A0_5" function="internal">
        <lane id=":A0_5_0" index="0" speed="13.90" length="2.62" shape="1.69,0.19 1.60,0.00 2.01,-0.83 3.25,-1.65"/>
    </edge>
    <edge id=":A1_0" function="internal">
        <lane id=":A1_0_0" index="0" speed="13.90" length="9.50" shape="-1.65,104.75 -1.65,95.25"/>
    </edge>
    <edge id=":A1_1" function="internal">
        <lane id=":A1_1_0" index="0" speed="13.90" length="5.28" shape="-1.65,104.75 -1.25,101.95 -0.05,99.95 0.05,99.89"/>
    </edge>
    <edge id=":A1_2" function="internal">
        <lane id=":A1_2_0" index="0" speed="13.90" length="2.41" shape="-1.65,104.75 -0.83,103.51 0.00,103.10"/>
    </edge>
    <edge id=":A1_9" function="internal">
        <lane id=":A1_9_0" index="0" speed="13.90" length="5.04" shape="0.05,99.89 1.95,98.75 4.75,98.35"/>
    </edge>
    <edge id=":A1_10" function="internal">
        <lane id=":A1_10_0" index="0" speed="13.90" length="2.41" shape="0.00,103.10 0.83,103.51 1.65,104.75"/>
    </edge>
    <edge id=":A1_3" function="internal">
        <lane id=":A1_3_0" index="0" speed="13.90" length="5.00" shape="4.75,101.65 3.39,101.84 2.43,102.43 1.84,103.39 1.65,104.75"/>
    </edge>
    <edge id=":A1_4" function="internal">
        <lane id=":A1_4_0" index="0" speed="13.90" length="10.32" shape="4.75,101.65 1.95,101.25 -0.05,100.05 -1.25,98.05 -1.65,95.25"/>
    </edge>
    <edge id=":A1_5" function="internal">
        <lane id=":A1_5_0" index="0" speed="13.90" length="2.69" shape="4.75,101.65 3.51,100.82 3.10,100.00 3.23,99.75"/>
    </edge>
    <edge id=":A1_11" function="internal">
        <lane id=":A1_11_0" index="0" speed="13.90" length="2.13" shape="3.23,99.75 3.51,99.17 4.75,98.35"/>
    </edge>
    <edge id=":A1_6" function="internal">
        <lane id=":A1_6_0" index="0" speed="13.90" length="5.00" shape="1.65,95.25 1.84,96.61 2.43,97.57 3.39,98.16 4.75,98.35"/>
    </edge>
    <edge id=":A1_7" function="internal">
        <lane id=":A1_7_0" index="0" speed="13.90" length="9.50" shape="1.65,95.25 1.65,104.75"/>
    </edge>
    <edge id=":A1_8" function="internal">
        <lane id=":A1_8_0" index="0" speed="13.90" length="2.41" shape="1.65,95.25 0.83,96.49 0.00,96.90"/>
    </edge>
    <edge id=":A1_12" function="internal">
        <lane id=":A1_12_0" index="0" speed="13.90" length="2.41" shape="0.00,96.90 -0.83,96.49 -1.65,95.25"/>
    </edge>
    <edge id=":A2_0" function="internal">
        <lane id=":A2_0_0" index="0" speed="13.90" length="9.50" shape="-1.65,204.75 -1.65,195.25"/>
    </edge>
    <edge id=":A2_1" function="internal">
        <lane id=":A2_1_0" index="0" speed="13.90" length="5.28" shape="-1.65,204.75 -1.25,201.95 -0.05,199.95 0.05,199.89"/>
    </edge>
    <edge id=":A2_2" function="internal">
        <lane id=":A2_2_0" index="0" speed="13.90" length="2.41" shape="-1.65,204.75 -0.83,203.51 0.00,203.10"/>
    </edge>
    <edge id=":A2_9" function="internal">
        <lane id=":A2_9_0" index="0" speed="13.90" length="5.04" shape="0.05,199.89 1.95,198.75 4.75,198.35"/>
    </edge>
    <edge id=":A2_10" function="internal">
        <lane id=":A2_10_0" index="0" speed="13.90" length="2.41" shape="0.00,203.10 0.83,203.51 1.65,204.75"/>
    </edge>
    <edge id=":A2_3" function="internal">
        <lane id=":A2_3_0" index="0" speed="13.90" length="5.00" shape="4.75,201.65 3.39,201.84 2.43,202.43 1.84,203.39 1.65,204.75"/>
    </edge>
    <edge id=":A2_4" function="internal">
        <lane id=":A2_4_0" index="0" speed="13.90" length="10.32" shape="4.75,201.65 1.95,201.25 -0.05,200.05 -1.25,198.05 -1.65,195.25"/>
    </edge>
    <edge id=":A2_5" function="internal">
        <lane id=":A2_5_0" index="0" speed="13.90" length="2.69" shape="4.75,201.65 3.51,200.83 3.10,200.00 3.23,199.75"/>
    </edge>
    <edge id=":A2_11" function="internal">
        <lane id=":A2_11_0" index="0" speed="13.90" length="2.13" shape="3.23,199.75 3.51,199.18 4.75,198.35"/>
    </edge>
    <edge id=":A2_6" function="internal">
        <lane id=":A2_6_0" index="0" speed="13.90" length="5.00" shape="1.65,195.25 1.84,196.61 2.43,197.58 3.39,198.16 4.75,198.35"/>
    </edge>
    <edge id=":A2_7" function="internal">
        <lane id=":A2_7_0" index="0" speed="13.90" length="9.50" shape="1.65,195.25 1.65,204.75"/>
    </edge>
    <edge id=":A2_8" function="internal">
        <lane id=":A2_8_0" index="0" speed="13.90" length="2.41" shape="1.65,195.25 0.83,196.49 0.00,196.90"/>
    </edge>
    <edge id=":A2_12" function="internal">
        <lane id=":A2_12_0" index="0" speed="13.90" length="2.41" shape="0.00,196.90 -0.83,196.49 -1.65,195.25"/>
    </edge>
    <edge id=":A3_0" function="internal">
        <lane id=":A3_0_0" index="0" speed="13.90" length="9.50" shape="-1.65,304.75 -1.65,295.25"/>
    </edge>
    <edge id=":A3_1" function="internal">
        <lane id=":A3_1_0" index="0" speed="13.90" length="5.28" shape="-1.65,304.75 -1.25,301.95 -0.05,299.95 0.05,299.89"/>
    </edge>
    <edge id=":A3_2" function="internal">
        <lane id=":A3_2_0" index="0" speed="13.90" length="2.41" shape="-1.65,304.75 -0.83,303.51 0.00,303.10"/>
    </edge>
    <edge id=":A3_9" function="internal">
        <lane id=":A3_9_0" index="0" speed="13.90" length="5.04" shape="0.05,299.89 1.95,298.75 4.75,298.35"/>
    </edge>
    <edge id=":A3_10" function="internal">
        <lane id=":A3_10_0" index="0" speed="13.90" length="2.41" shape="0.00,303.10 0.83,303.51 1.65,304.75"/>
    </edge>
    <edge id=":A3_3" function="internal">
        <lane id=":A3_3_0" index="0" speed="13.90" length="5.00" shape="4.75,301.65 3.39,301.84 2.43,302.42 1.84,303.39 1.65,304.75"/>
    </edge>
    <edge id=":A3_4" function="internal">
        <lane id=":A3_4_0" index="0" speed="13.90" length="10.32" shape="4.75,301.65 1.95,301.25 -0.05,300.05 -1.25,298.05 -1.65,295.25"/>
    </edge>
    <edge id=":A3_5" function="internal">
        <lane id=":A3_5_0" index="0" speed="13.90" length="2.69" shape="4.75,301.65 3.51,300.83 3.10,300.00 3.23,299.75"/>
    </edge>
    <edge id=":A3_11" function="internal">
        <lane id=":A3_11_0" index="0" speed="13.90" length="2.13" shape="3.23,299.75 3.51,299.18 4.75,298.35"/>
    </edge>
    <edge id=":A3_6" function="internal">
        <lane id=":A3_6_0" index="0" speed="13.90" length="5.00" shape="1.65,295.25 1.84,296.61 2.43,297.58 3.39,298.16 4.75,298.35"/>
    </edge>
    <edge id=":A3_7" function="internal">
        <lane id=":A3_7_0" index="0" speed="13.90" length="9.50" shape="1.65,295.25 1.65,304.75"/>
    </edge>
    <edge id=":A3_8" function="internal">
        <lane id=":A3_8_0" index="0" speed="13.90" length="2.41" shape="1.65,295.25 0.83,296.49 0.00,296.90"/>
    </edge>
    <edge id=":A3_12" function="internal">
        <lane id=":A3_12_0" index="0" speed="13.90" length="2.41" shape="0.00,296.90 -0.83,296.49 -1.65,295.25"/>
    </edge>
    <edge id=":A4_0" function="internal">
        <lane id=":A4_0_0" index="0" speed="13.90" length="7.90" shape="3.25,401.65 1.11,401.34 -0.43,400.42 -1.34,398.89 -1.65,396.75"/>
    </edge>
    <edge id=":A4_1" function="internal">
        <lane id=":A4_1_0" index="0" speed="13.90" length="2.80" shape="3.25,401.65 2.01,400.83 1.60,400.00 1.77,399.65"/>
    </edge>
    <edge id=":A4_4" function="internal">
        <lane id=":A4_4_0" index="0" speed="13.90" length="2.02" shape="1.77,399.65 2.01,399.18 3.25,398.35"/>
    </edge>
    <edge id=":A4_2" function="internal">
        <lane id=":A4_2_0" index="0" speed="13.90" length="2.58" shape="1.65,396.75 1.75,397.45 2.05,397.95 2.55,398.25 3.25,398.35"/>
    </edge>
    <edge id=":A4_3" function="internal">
        <lane id=":A4_3_0" index="0" speed="13.90" length="2.20" shape="1.65,396.75 0.83,397.99 0.19,398.31"/>
    </edge>
    <edge id=":A4_5" function="internal">
        <lane id=":A4_5_0" index="0" speed="13.90" length="2.62" shape="0.19,398.31 0.00,398.40 -0.83,397.99 -1.65,396.75"/>
    </edge>
    <edge id=":B0_0" function="internal">
        <lane id=":B0_0_0" index="0" speed="13.90" length="5.00" shape="98.35,4.75 98.16,3.39 97.57,2.43 96.61,1.84 95.25,1.65"/>
    </edge>
    <edge id=":B0_1" function="internal">
        <lane id=":B0_1_0" index="0" speed="13.90" length="10.32" shape="98.35,4.75 98.75,1.95 99.95,-0.05 101.95,-1.25 104.75,-1.65"/>
    </edge>
    <edge id=":B0_2" function="internal">
        <lane id=":B0_2_0" index="0" speed="13.90" length="2.69" shape="98.35,4.75 99.18,3.51 100.00,3.10 100.25,3.23"/>
    </edge>
    <edge id=":B0_9" function="internal">
        <lane id=":B0_9_0" index="0" speed="13.90" length="2.13" shape="100.25,3.23 100.83,3.51 101.65,4.75"/>
    </edge>
    <edge id=":B0_3" function="internal">
        <lane id=":B0_3_0" index="0" speed="13.90" length="5.00" shape="104.75,1.65 103.39,1.84 102.43,2.43 101.84,3.39 101.65,4.75"/>
    </edge>
    <edge id=":B0_4" function="internal">
        <lane id=":B0_4_0" index="0" speed="13.90" length="9.50" shape="104.75,1.65 95.25,1.65"/>
    </edge>
    <edge id=":B0_5" function="internal">
        <lane id=":B0_5_0" index="0" speed="13.90" length="2.41" shape="104.75,1.65 103.51,0.83 103.10,0.00"/>
    </edge>
    <edge id=":B0_10" function="internal">
        <lane id=":B0_10_0" index="0" speed="13.90" length="2.41" shape="103.10,0.00 103.51,-0.83 104.75,-1.65"/>
    </edge>
    <edge id=":B0_6" function="internal">
        <lane id=":B0_6_0" index="0" speed="13.90" length="9.50" shape="95.25,-1.65 104.75,-1.65"/>
    </edge>
    <edge id=":B0_7" function="internal">
        <lane id=":B0_7_0" index="0" speed="13.90" length="5.28" shape="95.25,-1.65 98.05,-1.25 100.05,-0.05 100.11,0.05"/>
    </edge>
    <edge id=":B0_8" function="internal">
        <lane id=":B0_8_0" index="0" speed="13.90" length="2.41" shape="95.25,-1.65 96.49,-0.83 96.90,0.00"/>
    </edge>
    <edge id=":B0_11" function="internal">
        <lane id=":B0_11_0" index="0" speed="13.90" length="5.04" shape="100.11,0.05 101.25,1.95 101.65,4.75"/>
    </edge>
    <edge id=":B0_12" function="internal">
        <lane id=":B0_12_0" index="0" speed="13.90" length="2.41" shape="96.90,0.00 96.49,0.83 95.25,1.65"/>
    </edge>
    <edge id=":B1_0" function="internal">
        <lane id=":B1_0_0" index="0" speed="13.90" length="5.00" shape="98.35,104.75 98.16,103.39 97.57,102.43 96.61,101.84 95.25,101.65"/>
    </edge>
    <edge id=":B1_1" function="internal">
        <lane id=":B1_1_0" index="0" speed="13.90" length="9.50" shape="98.35,104.75 98.35,95.25"/>
    </edge>
    <edge id=":B1_2" function="internal">
        <lane id=":B1_2_0" index="0" speed="13.90" length="5.28" shape="98.35,104.75 98.75,101.95 99.95,99.95 100.05,99.89"/>
    </edge>
    <edge id=":B1_3" function="internal">
        <lane id=":B1_3_0" index="0" speed="13.90" length="2.41" shape="98.35,104.75 99.18,103.51 100.00,103.10"/>
    </edge>
    <edge id=":B1_16" function="internal">
        <lane id=":B1_16_0" index="0" speed="13.90" length="5.04" shape="100.05,99.89 101.95,98.75 104.75,98.35"/>
    </edge>
    <edge id=":B1_17" function="internal">
        <lane id=":B1_17_0" index="0" speed="13.90" length="2.41" shape="100.00,103.10 100.83,103.51 101.65,104.75"/>
    </edge>
    <edge id=":B1_4" function="internal">
        <lane id=":B1_4_0" index="0" speed="13.90" length="5.00" shape="104.75,101.65 103.39,101.84 102.43,102.43 101.84,103.39 101.65,104.75"/>
    </edge>
    <edge id=":B1_5" function="internal">
        <lane id=":B1_5_0" index="0" speed="13.90" length="9.50" shape="104.75,101.65 95.25,101.65"/>
    </edge>
    <edge id=":B1_6" function="internal">
        <lane id=":B1_6_0" index="0" speed="13.90" length="5.28" shape="104.75,101.65 101.95,101.25 99.95,100.05 99.89,99.95"/>
    </edge>
    <edge id=":B1_7" function="internal">
        <lane id=":B1_7_0" index="0" speed="13.90" length="2.41" shape="104.75,101.65 103.51,100.82 103.10,100.00"/>
    </edge>
    <edge id=":B1_18" function="internal">
        <lane id=":B1_18_0" index="0" speed="13.90" length="5.04" shape="99.89,99.95 98.75,98.05 98.35,95.25"/>
    </edge>
    <edge id=":B1_19" function="internal">
        <lane id=":B1_19_0" index="0" speed="13.90" length="2.41" shape="103.10,100.00 103.51,99.17 104.75,98.35"/>
    </edge>
    <edge id=":B1_8" function="internal">
        <lane id=":B1_8_0" index="0" speed="13.90" length="5.00" shape="101.65,95.25 101.84,96.61 102.43,97.57 103.39,98.16 104.75,98.35"/>
    </edge>
    <edge id=":B1_9" function="internal">
        <lane id=":B1_9_0" index="0" speed="13.90" length="9.50" shape="101.65,95.25 101.65,104.75"/>
    </edge>
    <edge id=":B1_10" function="internal">
        <lane id=":B1_10_0" index="0" speed="13.90" length="5.28" shape="101.65,95.25 101.25,98.05 100.05,100.05 99.95,100.11"/>
    </edge>
    <edge id=":B1_11" function="internal">
        <lane id=":B1_11_0" index="0" speed="13.90" length="2.41" shape="101.65,95.25 100.82,96.49 100.00,96.90"/>
    </edge>
    <edge id=":B1_20" function="internal">
        <lane id=":B1_20_0" index="0" speed="13.90" length="5.04" shape="99.95,100.11 98.05,101.25 95.25,101.65"/>
    </edge>
    <edge id=":B1_21" function="internal">
        <lane id=":B1_21_0" index="0" speed="13.90" length="2.41" shape="100.00,96.90 99.17,96.49 98.35,95.25"/>
    </edge>
    <edge id=":B1_12" function="internal">
        <lane id=":B1_12_0" index="0" speed="13.90" length="5.00" shape="95.25,98.35 96.61,98.16 97.57,97.57 98.16,96.61 98.35,95.25"/>
    </edge>
    <edge id=":B1_13" function="internal">
        <lane id=":B1_13_0" index="0" speed="13.90" length="9.50" shape="95.25,98.35 104.75,98.35"/>
    </edge>
    <edge id=":B1_14" function="internal">
        <lane id=":B1_14_0" index="0" speed="13.90" length="5.28" shape="95.25,98.35 98.05,98.75 100.05,99.95 100.11,100.05"/>
    </edge>
    <edge id=":B1_15" function="internal">
        <lane id=":B1_15_0" index="0" speed="13.90" length="2.41" shape="95.25,98.35 96.49,99.18 96.90,100.00"/>
    </edge>
    <edge id=":B1_22" function="internal">
        <lane id=":B1_22_0" index="0" speed="13.90" length="5.04" shape="100.11,100.05 101.25,101.95 101.65,104.75"/>
    </edge>
    <edge id=":B1_23" function="internal">
        <lane id=":B1_23_0" index="0" speed="13.90" length="2.41" shape="96.90,100.00 96.49,100.83 95.25,101.65"/>
    </edge>
    <edge id=":B2_0" function="internal">
        <lane id=":B2_0_0" index="0" speed="13.90" length="5.00" shape="98.35,204.75 98.16,203.39 97.57,202.42 96.61,201.84 95.25,201.65"/>
    </edge>
    <edge id=":B2_1" function="internal">
        <lane id=":B2_1_0" index="0" speed="13.90" length="9.50" shape="98.35,204.75 98.35,195.25"/>
    </edge>
    <edge id=":B2_2" function="internal">
        <lane id=":B2_2_0" index="0" speed="13.90" length="5.28" shape="98.35,204.75 98.75,201.95 99.95,199.95 100.05,199.89"/>
    </edge>
    <edge id=":B2_3" function="internal">
        <lane id=":B2_3_0" index="0" speed="13.90" length="2.41" shape="98.35,204.75 99.18,203.51 100.00,203.10"/>
    </edge>
    <edge id=":B2_16" function="internal">
        <lane id=":B2_16_0" index="0" speed="13.90" length="5.04" shape="100.05,199.89 101.95,198.75 104.75,198.35"/>
    </edge>
    <edge id=":B2_17" function="internal">
        <lane id=":B2_17_0" index="0" speed="13.90" length="2.41" shape="100.00,203.10 100.83,203.51 101.65,204.75"/>
    </edge>
    <edge id=":B2_4" function="internal">
        <lane id=":B2_4_0" index="0" speed="13.90" length="5.00" shape="104.75,201.65 103.39,201.84 102.43,202.43 101.84,203.39 101.65,204.75"/>
    </edge>
    <edge id=":B2_5" function="internal">
        <lane id=":B2_5_0" index="0" speed="13.90" length="9.50" shape="104.75,201.65 95.25,201.65"/>
    </edge>
    <edge id=":B2_6" function="internal">
        <lane id=":B2_6_0" index="0" speed="13.90" length="5.28" shape="104.75,201.65 101.95,201.25 99.95,200.05 99.89,199.95"/>
    </edge>
    <edge id=":B2_7" function="internal">
        <lane id=":B2_7_0" index="0" speed="13.90" length="2.41" shape="104.75,201.65 103.51,200.83 103.10,200.00"/>
    </edge>
    <edge id=":B2_18" function="internal">
        <lane id=":B2_18_0" index="0" speed="13.90" length="5.04" shape="99.89,199.95 98.75,198.05 98.35,195.25"/>
    </edge>
    <edge id=":B2_19" function="internal">
        <lane id=":B2_19_0" index="0" speed="13.90" length="2.41" shape="103.10,200.00 103.51,199.18 104.75,198.35"/>
    </edge>
    <edge id=":B2_8" function="internal">
        <lane id=":B2_8_0" index="0" speed="13.90" length="5.00" shape="101.65,195.25 101.84,196.61 102.43,197.58 103.39,198.16 104.75,198.35"/>
    </edge>
    <edge id=":B2_9" function="internal">
        <lane id=":B2_9_0" index="0" speed="13.90" length="9.50" shape="101.65,195.25 101.65,204.75"/>
    </edge>
    <edge id=":B2_10" function="internal">
        <lane id=":B2_10_0" index="0" speed="13.90" length="5.28" shape="101.65,195.25 101.25,198.05 100.05,200.05 99.95,200.11"/>
    </edge>
    <edge id=":B2_11" function="internal">
        <lane id=":B2_11_0" index="0" speed="13.90" length="2.41" shape="101.65,195.25 100.82,196.49 100.00,196.90"/>
    </edge>
    <edge id=":B2_20" function="internal">
        <lane id=":B2_20_0" index="0" speed="13.90" length="5.04" shape="99.95,200.11 98.05,201.25 95.25,201.65"/>
    </edge>
    <edge id=":B2_21" function="internal">
        <lane id=":B2_21_0" index="0" speed="13.90" length="2.41" shape="100.00,196.90 99.17,196.49 98.35,195.25"/>
    </edge>
    <edge id=":B2_12" function="internal">
        <lane id=":B2_12_0" index="0" speed="13.90" length="5.00" shape="95.25,198.35 96.61,198.16 97.57,197.57 98.16,196.61 98.35,195.25"/>
    </edge>
    <edge id=":B2_13" function="internal">
        <lane id=":B2_13_0" index="0" speed="13.90" length="9.50" shape="95.25,198.35 104.75,198.35"/>
    </edge>
    <edge id=":B2_14" function="internal">
        <lane id=":B2_14_0" index="0" speed="13.90" length="5.28" shape="95.25,198.35 98.05,198.75 100.05,199.95 100.11,200.05"/>
    </edge>
    <edge id=":B2_15" function="internal">
        <lane id=":B2_15_0" index="0" speed="13.90" length="2.41" shape="95.25,198.35 96.49,199.17 96.90,200.00"/>
    </edge>
    <edge id=":B2_22" function="internal">
        <lane id=":B2_22_0" index="0" speed="13.90" length="5.04" shape="100.11,200.05 101.25,201.95 101.65,204.75"/>
    </edge>
    <edge id=":B2_23" function="internal">
        <lane id=":B2_23_0" index="0" speed="13.90" length="2.41" shape="96.90,200.00 96.49,200.82 95.25,201.65"/>
    </edge>
    <edge id=":B3_0" function="internal">
        <lane id=":B3_0_0" index="0" speed="13.90" length="5.00" shape="98.35,304.75 98.16,303.39 97.57,302.42 96.61,301.84 95.25,301.65"/>
    </edge>
    <edge id=":B3_1" function="internal">
        <lane id=":B3_1_0" index="0" speed="13.90" length="9.50" shape="98.35,304.75 98.35,295.25"/>
    </edge>
    <edge id=":B3_2" function="internal">
        <lane id=":B3_2_0" index="0" speed="13.90" length="5.28" shape="98.35,304.75 98.75,301.95 99.95,299.95 100.05,299.89"/>
    </edge>
    <edge id=":B3_3" function="internal">
        <lane id=":B3_3_0" index="0" speed="13.90" length="2.41" shape="98.35,304.75 99.18,303.51 100.00,303.10"/>
    </edge>
    <edge id=":B3_16" function="internal">
        <lane id=":B3_16_0" index="0" speed="13.90" length="5.04" shape="100.05,299.89 101.95,298.75 104.75,298.35"/>
    </edge>
    <edge id=":B3_17" function="internal">
        <lane id=":B3_17_0" index="0" speed="13.90" length="2.41" shape="100.00,303.10 100.83,303.51 101.65,304.75"/>
    </edge>
    <edge id=":B3_4" function="internal">
        <lane id=":B3_4_0" index="0" speed="13.90" length="5.00" shape="104.75,301.65 103.39,301.84 102.43,302.42 101.84,303.39 101.65,304.75"/>
    </edge>
    <edge id=":B3_5" function="internal">
        <lane id=":B3_5_0" index="0" speed="13.90" length="9.50" shape="104.75,301.65 95.25,301.65"/>
    </edge>
    <edge id=":B3_6" function="internal">
        <lane id=":B3_6_0" index="0" speed="13.90" length="5.28" shape="104.75,301.65 101.95,301.25 99.95,300.05 99.89,299.95"/>
    </edge>
    <edge id=":B3_7" function="internal">
        <lane id=":B3_7_0" index="0" speed="13.90" length="2.41" shape="104.75,301.65 103.51,300.83 103.10,300.00"/>
    </edge>
    <edge id=":B3_18" function="internal">
        <lane id=":B3_18_0" index="0" speed="13.90" length="5.04" shape="99.89,299.95 98.75,298.05 98.35,295.25"/>
    </edge>
    <edge id=":B3_19" function="internal">
        <lane id=":B3_19_0" index="0" speed="13.90" length="2.41" shape="103.10,300.00 103.51,299.18 104.75,298.35"/>
    </edge>
    <edge id=":B3_8" function="internal">
        <lane id=":B3_8_0" index="0" speed="13.90" length="5.00" shape="101.65,295.25 101.84,296.61 102.43,297.58 103.39,298.16 104.75,298.35"/>
    </edge>
    <edge id=":B3_9" function="internal">
        <lane id=":B3_9_0" index="0" speed="13.90" length="9.50" shape="101.65,295.25 101.65,304.75"/>
    </edge>
    <edge id=":B3_10" function="internal">
        <lane id=":B3_10_0" index="0" speed="13.90" length="5.28" shape="101.65,295.25 101.25,298.05 100.05,300.05 99.95,300.11"/>
    </edge>
    <edge id=":B3_11" function="internal">
        <lane id=":B3_11_0" index="0" speed="13.90" length="2.41" shape="101.65,295.25 100.82,296.49 100.00,296.90"/>
    </edge>
    <edge id=":B3_20" function="internal">
        <lane id=":B3_20_0" index="0" speed="13.90" length="5.04" shape="99.95,300.11 98.05,301.25 95.25,301.65"/>
    </edge>
    <edge id=":B3_21" function="internal">
        <lane id=":B3_21_0" index="0" speed="13.90" length="2.41" shape="100.00,296.90 99.17,296.49 98.35,295.25"/>
    </edge>
    <edge id=":B3_12" function="internal">
        <lane id=":B3_12_0" index="0" speed="13.90" length="5.00" shape="95.25,298.35 96.61,298.16 97.57,297.58 98.16,296.61 98.35,295.25"/>
    </edge>
    <edge id=":B3_13" function="internal">
        <lane id=":B3_13_0" index="0" speed="13.90" length="9.50" shape="95.25,298.35 104.75,298.35"/>
    </edge>
    <edge id=":B3_14" function="internal">
        <lane id=":B3_14_0" index="0" speed="13.90" length="5.28" shape="95.25,298.35 98.05,298.75 100.05,299.95 100.11,300.05"/>
    </edge>
    <edge id=":B3_15" function="internal">
        <lane id=":B3_15_0" index="0" speed="13.90" length="2.41" shape="95.25,298.35 96.49,299.17 96.90,300.00"/>
    </edge>
    <edge id=":B3_22" function="internal">
        <lane id=":B3_22_0" index="0" speed="13.90" length="5.04" shape="100.11,300.05 101.25,301.95 101.65,304.75"/>
    </edge>
    <edge id=":B3_23" function="internal">
        <lane id=":B3_23_0" index="0" speed="13.90" length="2.41" shape="96.90,300.00 96.49,300.82 95.25,301.65"/>
    </edge>
    <edge id=":B4_0" function="internal">
        <lane id=":B4_0_0" index="0" speed="13.90" length="9.50" shape="104.75,401.65 95.25,401.65"/>
    </edge>
    <edge id=":B4_1" function="internal">
        <lane id=":B4_1_0" index="0" speed="13.90" length="5.28" shape="104.75,401.65 101.95,401.25 99.95,400.05 99.89,399.95"/>
    </edge>
    <edge id=":B4_2" function="internal">
        <lane id=":B4_2_0" index="0" speed="13.90" length="2.41" shape="104.75,401.65 103.51,400.83 103.10,400.00"/>
    </edge>
    <edge id=":B4_9" function="internal">
        <lane id=":B4_9_0" index="0" speed="13.90" length="5.04" shape="99.89,399.95 98.75,398.05 98.35,395.25"/>
    </edge>
    <edge id=":B4_10" function="internal">
        <lane id=":B4_10_0" index="0" speed="13.90" length="2.41" shape="103.10,400.00 103.51,399.18 104.75,398.35"/>
    </edge>
    <edge id=":B4_3" function="internal">
        <lane id=":B4_3_0" index="0" speed="13.90" length="5.00" shape="101.65,395.25 101.84,396.61 102.43,397.58 103.39,398.16 104.75,398.35"/>
    </edge>
    <edge id=":B4_4" function="internal">
        <lane id=":B4_4_0" index="0" speed="13.90" length="10.32" shape="101.65,395.25 101.25,398.05 100.05,400.05 98.05,401.25 95.25,401.65"/>
    </edge>
    <edge id=":B4_5" function="internal">
        <lane id=":B4_5_0" index="0" speed="13.90" length="2.69" shape="101.65,395.25 100.82,396.49 100.00,396.90 99.75,396.77"/>
    </edge>
    <edge id=":B4_11" function="internal">
        <lane id=":B4_11_0" index="0" speed="13.90" length="2.13" shape="99.75,396.77 99.17,396.49 98.35,395.25"/>
    </edge>
    <edge id=":B4_6" function="internal">
        <lane id=":B4_6_0" index="0" speed="13.90" length="5.00" shape="95.25,398.35 96.61,398.16 97.57,397.58 98.16,396.61 98.35,395.25"/>
    </edge>
    <edge id=":B4_7" function="internal">
        <lane id=":B4_7_0" index="0" speed="13.90" length="9.50" shape="95.25,398.35 104.75,398.35"/>
    </edge>
    <edge id=":B4_8" function="internal">
        <lane id=":B4_8_0" index="0" speed="13.90" length="2.41" shape="95.25,398.35 96.49,399.17 96.90,400.00"/>
    </edge>
    <edge id=":B4_12" function="internal">
        <lane id=":B4_12_0" index="0" speed="13.90" length="2.41" shape="96.90,400.00 96.49,400.82 95.25,401.65"/>
    </edge>
    <edge id=":C0_0" function="internal">
        <lane id=":C0_0_0" index="0" speed="13.90" length="5.00" shape="198.35,4.75 198.16,3.39 197.57,2.43 196.61,1.84 195.25,1.65"/>
    </edge>
    <edge id=":C0_1" function="internal">
        <lane id=":C0_1_0" index="0" speed="13.90" length="10.32" shape="198.35,4.75 198.75,1.95 199.95,-0.05 201.95,-1.25 204.75,-1.65"/>
    </edge>
    <edge id=":C0_2" function="internal">
        <lane id=":C0_2_0" index="0" speed="13.90" length="2.69" shape="198.35,4.75 199.17,3.51 200.00,3.10 200.25,3.23"/>
    </edge>
    <edge id=":C0_9" function="internal">
        <lane id=":C0_9_0" index="0" speed="13.90" length="2.13" shape="200.25,3.23 200.82,3.51 201.65,4.75"/>
    </edge>
    <edge id=":C0_3" function="internal">
        <lane id=":C0_3_0" index="0" speed="13.90" length="5.00" shape="204.75,1.65 203.39,1.84 202.42,2.43 201.84,3.39 201.65,4.75"/>
    </edge>
    <edge id=":C0_4" function="internal">
        <lane id=":C0_4_0" index="0" speed="13.90" length="9.50" shape="204.75,1.65 195.25,1.65"/>
    </edge>
    <edge id=":C0_5" function="internal">
        <lane id=":C0_5_0" index="0" speed="13.90" length="2.41" shape="204.75,1.65 203.51,0.83 203.10,0.00"/>
    </edge>
    <edge id=":C0_10" function="internal">
        <lane id=":C0_10_0" index="0" speed="13.90" length="2.41" shape="203.10,0.00 203.51,-0.83 204.75,-1.65"/>
    </edge>
    <edge id=":C0_6" function="internal">
        <lane id=":C0_6_0" index="0" speed="13.90" length="9.50" shape="195.25,-1.65 204.75,-1.65"/>
    </edge>
    <edge id=":C0_7" function="internal">
        <lane id=":C0_7_0" index="0" speed="13.90" length="5.28" shape="195.25,-1.65 198.05,-1.25 200.05,-0.05 200.11,0.05"/>
    </edge>
    <edge id=":C0_8" function="internal">
        <lane id=":C0_8_0" index="0" speed="13.90" length="2.41" shape="195.25,-1.65 196.49,-0.83 196.90,0.00"/>
    </edge>
    <edge id=":C0_11" function="internal">
        <lane id=":C0_11_0" index="0" speed="13.90" length="5.04" shape="200.11,0.05 201.25,1.95 201.65,4.75"/>
    </edge>
    <edge id=":C0_12" function="internal">
        <lane id=":C0_12_0" index="0" speed="13.90" length="2.41" shape="196.90,0.00 196.49,0.83 195.25,1.65"/>
    </edge>
    <edge id=":C1_0" function="internal">
        <lane id=":C1_0_0" index="0" speed="13.90" length="5.00" shape="198.35,104.75 198.16,103.39 197.57,102.43 196.61,101.84 195.25,101.65"/>
    </edge>
    <edge id=":C1_1" function="internal">
        <lane id=":C1_1_0" index="0" speed="13.90" length="9.50" shape="198.35,104.75 198.35,95.25"/>
    </edge>
    <edge id=":C1_2" function="internal">