<?xml version="1.0"?>
<!-- generated on 2016-12-11 16:29:05.517687 by $Id: randomTrips.py 21557 2016-09-28 10:43:52Z luecken $
  options: -n net.net.xml -r rou.rou.xml -b 0 -e 151 -p 1 <doubleminus>fringe-factor=100
-->
<trips>
    <trip id="0" depart="0.00" from="G6toH6" to="E1toE0" />
    <trip id="1" depart="1.00" from="G4toG5" to="J7toJ6" />
    <trip id="2" depart="2.00" from="F3toG3" to="I9toI8" />
    <trip id="3" depart="3.00" from="D8toD7" to="I5toH5" />
    <trip id="4" depart="4.00" from="I5toH5" to="A4toB4" />
    <trip id="5" depart="5.00" from="G7toG8" to="F2toE2" />
    <trip id="6" depart="6.00" from="F0toG0" to="J7toJ6" />
    <trip id="7" depart="7.00" from="H2toG2" to="F6toF7" />
    <trip id="8" depart="8.00" from="H2toH1" to="D6toC6" />
    <trip id="9" depart="9.00" from="B2toB1" to="C8toB8" />
    <trip id="10" depart="10.00" from="F5toF4" to="J2toJ3" />
    <trip id="11" depart="11.00" from="F8toF9" to="A2toB2" />
    <trip id="12" depart="12.00" from="B1toB0" to="C1toC2" />
    <trip id="13" depart="13.00" from="F2toF1" to="I8toJ8" />
    <trip id="14" depart="14.00" from="C3toC4" to="G2toG3" />
    <trip id="15" depart="15.00" from="G8toG9" to="A5toB5" />
    <trip id="16" depart="16.00" from="C0toD0" to="D6toC6" />
    <trip id="17" depart="17.00" from="F7toF6" to="F9toF8" />
    <trip id="18" depart="18.00" from="J6toJ5" to="I2toH2" />
    <trip id="19" depart="19.00" from="J6toI6" to="H3toI3" />
    <trip id="20" depart="20.00" from="E3toF3" to="D4toD5" />
    <trip id="21" depart="21.00" from="B2toC2" to="E2toD2" />
    <trip id="22" depart="22.00" from="H3toG3" to="D4toE4" />
    <trip id="23" depart="23.00" from="G4toH4" to="C0toB0" />
    <trip id="24" depart="24.00" from="H9toH8" to="E2toE3" />
    <trip id="25" depart="25.00" from="C5toB5" to="F0toF1" />
    <trip id="26" depart="26.00" from="D6toD5" to="H3toG3" />
    <trip id="27" depart="27.00" from="A3toA2" to="H3toH2" />
    <trip id="28" depart="28.00" from="E0toD0" to="H1toH2" />
    <trip id="29" depart="29.00" from="H5toH6" to="H3toG3" />
    <trip id="30" depart="30.00" from="C3toB3" to="B2toA2" />
    <trip id="31" depart="31.00" from="G5toG6" to="D6toD7" />
    <trip id="32" depart="32.00" from="G9toG8" to="C4toC3" />
    <trip id="33" depart="33.00" from="B3toA3" to="F0toF1" />
    <trip id="34" depart="34.00" from="I2toI1" to="C7toD7" />
    <trip id="35" depart="35.00" from="H0toG0" to="J4toI4" />
    <trip id="36" depart="36.00" from="F4toE4" to="E3toE4" />
    <trip id="37" depart="37.00" from="D7toD6" to="E2toE1" />
    <trip id="38" depart="38.00" from="G4toF4" to="C3toC2" />
    <trip id="39" depart="39.00" from="I9toJ9" to="G6toF6" />
    <trip id="40" depart="40.00" from="J5toJ6" to="B8toB7" />
    <trip id="41" depart="41.00" from="C7toD7" to="A6toA7" />
    <trip id="42" depart="42.00" from="G7toH7" to="F3toF4" />
    <trip id="43" depart="43.00" from="D5toD4" to="B4toA4" />
    <trip id="44" depart="44.00" from="I5toI4" to="G1toF1" />
    <trip id="45" depart="45.00" from="C1toC2" to="F8toE8" />
    <trip id="46" depart="46.00" from="E7toD7" to="B0toB1" />
    <trip id="47" depart="47.00" from="J3toJ2" to="B0toB1" />
    <trip id="48" depart="48.00" from="D6toD7" to="F1toG1" />
    <trip id="49" depart="49.00" from="H6toI6" to="G8toH8" />
    <trip id="50" depart="50.00" from="D9toD8" to="C2toC3" />
    <trip id="51" depart="51.00" from="C7toC6" to="D7toC7" />
    <trip id="52" depart="52.00" from="E7toE6" to="I5toI4" />
    <trip id="53" depart="53.00" from="H8toI8" to="C4toC3" />
    <trip id="54" depart="54.00" from="J6toJ5" to="I1toH1" />
    <trip id="55" depart="55.00" from="I5toI6" to="E9toD9" />
    <trip id="56" depart="56.00" from="A1toA0" to="C9toB9" />
    <trip id="57" depart="57.00" from="C5toB5" to="E6toD6" />
    <trip id="58" depart="58.00" from="A6toA7" to="I5toH5" />
    <trip id="59" depart="59.00" from="A4toA5" to="F4toE4" />
    <trip id="60" depart="60.00" from="H4toI4" to="C4toB4" />
    <trip id="61" depart="61.00" from="F2toF1" to="G7toH7" />
    <trip id="62" depart="62.00" from="C9toB9" to="A1toA0" />
    <trip id="63" depart="63.00" from="H9toG9" to="C3toB3" />
    <trip id="64" depart="64.00" from="J7toI7" to="I3toI4" />
    <trip id="65" depart="65.00" from="I1toI2" to="G4toG5" />
    <trip id="66" depart="66.00" from="I6toI5" to="H8toI8" />
    <trip id="67" depart="67.00" from="J5toI5" to="A3toA4" />
    <trip id="68" depart="68.00" from="C3toB3" to="D9toC9" />
    <trip id="69" depart="69.00" from="E1toE2" to="B2toC2" />
    <trip id="70" depart="70.00" from="H2toH3" to="A6toA7" />
    <trip id="71" depart="71.00" from="E9toE8" to="G3toG2" />
    <trip id="72" depart="72.00" from="H0toH1" to="D5toD4" />
    <trip id="73" depart="73.00" from="H3toH4" to="B8toA8" />
    <trip id="74" depart="74.00" from="A2toB2" to="J3toJ4" />
    <trip id="75" depart="75.00" from="B5toA5" to="I5toI6" />
    <trip id="76" depart="76.00" from="I2toI1" to="G2toG1" />
    <trip id="77" depart="77.00" from="C5toC6" to="C6toC7" />
    <trip id="78" depart="78.00" from="F9toG9" to="D0toC0" />
    <trip id="79" depart="79.00" from="D6toD5" to="A8toA7" />
    <trip id="80" depart="80.00" from="I0toH0" to="B5toC5" />
    <trip id="81" depart="81.00" from="G7toH7" to="D8toC8" />
    <trip id="82" depart="82.00" from="I5toI4" to="J5toI5" />
    <trip id="83" depart="83.00" from="B1toB2" to="D1toD0" />
    <trip id="84" depart="84.00" from="E6toD6" to="I0toH0" />
    <trip id="85" depart="85.00" from="C3toC4" to="I1toH1" />
    <trip id="86" depart="86.00" from="G2toG3" to="I7toJ7" />
    <trip id="87" depart="87.00" from="A0toA1" to="H3toH4" />
    <trip id="88" depart="88.00" from="F4toF3" to="I2toJ2" />
    <trip id="89" depart="89.00" from="D5toC5" to="C8toC7" />
    <trip id="90" depart="90.00" from="H7toH8" to="H4toG4" />
    <trip id="91" depart="91.00" from="C6toD6" to="D2toE2" />
    <trip id="92" depart="92.00" from="D6toD7" to="G9toH9" />
    <trip id="93" depart="93.00" from="C9toC8" to="I5toI6" />
    <trip id="94" depart="94.00" from="G5toF5" to="B3toC3" />
    <trip id="95" depart="95.00" from="G8toF8" to="I9toI8" />
    <trip id="96" depart="96.00" from="F2toE2" to="G0toF0" />
    <trip id="97" depart="97.00" from="G8toG9" to="F4toG4" />
    <trip id="98" depart="98.00" from="C5toC6" to="E4toD4" />
    <trip id="99" depart="99.00" from="E8toF8" to="I7toI8" />
    <trip id="100" depart="100.00" from="A3toA2" to="H4toG4" />
    <trip id="101" depart="101.00" from="D4toD3" to="A5toB5" />
    <trip id="102" depart="102.00" from="H6toI6" to="B2toB1" />
    <trip id="103" depart="103.00" from="G1toG2" to="E0toF0" />
    <trip id="104" depart="104.00" from="B5toA5" to="B1toB2" />
    <trip id="105" depart="105.00" from="D1toD2" to="G9toF9" />
    <trip id="106" depart="106.00" from="J1toJ0" to="B7toB6" />
    <trip id="107" depart="107.00" from="A9toA8" to="B6toC6" />
    <trip id="108" depart="108.00" from="G8toG7" to="B8toA8" />
    <trip id="109" depart="109.00" from="I7toJ7" to="A6toB6" />
    <trip id="110" depart="110.00" from="F2toE2" to="E8toE9" />
    <trip id="111" depart="111.00" from="D8toC8" to="J9toJ8" />
    <trip id="112" depart="112.00" from="F4toG4" to="A7toA6" />
    <trip id="113" depart="113.00" from="H7toH6" to="C4toC5" />
    <trip id="114" depart="114.00" from="D8toD7" to="D7toD6" />
    <trip id="115" depart="115.00" from="F1toG1" to="J5toJ4" />
    <trip id="116" depart="116.00" from="I5toH5" to="B0toA0" />
    <trip id="117" depart="117.00" from="B9toB8" to="H0toH1" />
    <trip id="118" depart="118.00" from="C9toD9" to="D7toD6" />
    <trip id="119" depart="119.00" from="D4toC4" to="E1toE0" />
    <trip id="120" depart="120.00" from="E5toE4" to="A1toA0" />
    <trip id="121" depart="121.00" from="J7toJ8" to="E3toD3" />
    <trip id="122" depart="122.00" from="I8toI7" to="C0toC1" />
    <trip id="123" depart="123.00" from="G0toF0" to="G3toH3" />
    <trip id="124" depart="124.00" from="H9toI9" to="C3toC4" />
    <trip id="125" depart="125.00" from="G8toF8" to="H9toG9" />
    <trip id="126" depart="126.00" from="A9toA8" to="E8toD8" />
    <trip id="127" depart="127.00" from="D0toD1" to="A8toA9" />
    <trip id="128" depart="128.00" from="F4toF3" to="G0toG1" />
    <trip id="129" depart="129.00" from="G3toG4" to="C1toB1" />
    <trip id="130" depart="130.00" from="J0toJ1" to="J4toJ3" />
    <trip id="131" depart="131.00" from="G6toH6" to="I5toJ5" />
    <trip id="132" depart="132.00" from="E2toF2" to="I7toJ7" />
    <trip id="133" depart="133.00" from="I1toI2" to="C1toB1" />
    <trip id="134" depart="134.00" from="D1toC1" to="H4toH5" />
    <trip id="135" depart="135.00" from="D0toE0" to="G5toG6" />
    <trip id="136" depart="136.00" from="H9toH8" to="A2toA1" />
    <trip id="137" depart="137.00" from="D5toC5" to="D9toD8" />
    <trip id="138" depart="138.00" from="F7toF8" to="F3toF2" />
    <trip id="139" depart="139.00" from="H8toH7" to="A5toB5" />
    <trip id="140" depart="140.00" from="J8toJ9" to="C7toB7" />
    <trip id="141" depart="141.00" from="J8toJ7" to="I0toJ0" />
    <trip id="142" depart="142.00" from="F9toE9" to="H0toH1" />
    <trip id="143" depart="143.00" from="E3toF3" to="F9toF8" />
    <trip id="144" depart="144.00" from="D6toC6" to="A2toB2" />
    <trip id="145" depart="145.00" from="I8toI9" to="C1toC2" />
    <trip id="146" depart="146.00" from="D1toE1" to="C6toC7" />
    <trip id="147" depart="147.00" from="H7toG7" to="D8toC8" />
    <trip id="148" depart="148.00" from="D0toE0" to="F6toF7" />
    <trip id="149" depart="149.00" from="C6toC7" to="I4toJ4" />
    <trip id="150" depart="150.00" from="D6toD5" to="C5toD5" />
</trips>
